api/pglib_opf_case2737sop_k__api.m
%%%%%%%%%%%%%%%%%%%%%%%%%%%%%%%%%%%%%%%%%%%%%%%%%%%%%%%%%%%%%%%%%%%%%%%%%%%
%%%%                                                                  %%%%%
%%%%    IEEE PES Power Grid Library - Optimal Power Flow - v19.01     %%%%%
%%%%          (https://github.com/power-grid-lib/pglib-opf)           %%%%%
%%%%             Benchmark Group - Active Power Increase              %%%%%
%%%%                       04 - January - 2019                        %%%%%
%%%%                                                                  %%%%%
%%%%%%%%%%%%%%%%%%%%%%%%%%%%%%%%%%%%%%%%%%%%%%%%%%%%%%%%%%%%%%%%%%%%%%%%%%%
function mpc = pglib_opf_case2737sop_k__api
mpc.version = '2';
mpc.baseMVA = 100.0;

%% bus data
%	bus_i	type	Pd	Qd	Gs	Bs	area	Vm	Va	baseKV	zone	Vmax	Vmin
mpc.bus = [
	1	 1	 0.0	 0.0	 0.0	 0.0	 1	    1.03000	    0.00000	 220.0	 1	    1.11000	    0.95000;
	2	 1	 0.0	 0.0	 0.0	 0.0	 1	    1.03000	    0.00000	 220.0	 1	    1.11000	    0.95000;
	3	 1	 0.0	 0.0	 0.0	 0.0	 1	    1.03000	    0.00000	 220.0	 1	    1.11000	    0.95000;
	4	 1	 0.0	 0.0	 0.0	 0.0	 1	    1.03000	    0.00000	 220.0	 1	    1.11000	    0.95000;
	5	 1	 0.0	 0.0	 0.0	 0.0	 1	    1.03000	    0.00000	 220.0	 1	    1.11000	    0.95000;
	6	 1	 0.0	 0.0	 0.0	 0.0	 1	    1.03000	    0.00000	 220.0	 1	    1.11000	    0.95000;
	7	 1	 0.0	 0.0	 0.0	 0.0	 1	    1.03000	    0.00000	 220.0	 1	    1.11000	    0.95000;
	8	 1	 0.0	 0.0	 0.0	 -50.0	 1	    1.00000	    0.00000	 400.0	 1	    1.05000	    0.95000;
	9	 1	 0.0	 0.0	 0.0	 0.0	 1	    1.00000	    0.00000	 400.0	 1	    1.05000	    0.95000;
	10	 1	 0.0	 0.0	 0.0	 0.0	 1	    1.03000	    0.00000	 220.0	 1	    1.11000	    0.95000;
	11	 1	 0.0	 0.0	 0.0	 0.0	 1	    1.03000	    0.00000	 220.0	 1	    1.11000	    0.95000;
	12	 1	 0.0	 0.0	 0.0	 0.0	 1	    1.03000	    0.00000	 220.0	 1	    1.11000	    0.95000;
	13	 1	 0.0	 0.0	 0.0	 0.0	 1	    1.03000	    0.00000	 220.0	 1	    1.11000	    0.95000;
	14	 1	 0.0	 0.0	 0.0	 -50.0	 1	    1.00000	    0.00000	 400.0	 1	    1.05000	    0.95000;
	15	 1	 0.0	 0.0	 0.0	 0.0	 1	    1.00000	    0.00000	 400.0	 1	    1.05000	    0.95000;
	16	 1	 0.0	 0.0	 0.0	 0.0	 1	    1.00000	    0.00000	 400.0	 1	    1.05000	    0.95000;
	17	 1	 0.0	 0.0	 0.0	 0.0	 1	    1.03000	    0.00000	 220.0	 1	    1.11000	    0.95000;
	18	 1	 0.0	 0.0	 0.0	 0.0	 1	    1.03000	    0.00000	 220.0	 1	    1.11000	    0.95000;
	19	 1	 0.0	 0.0	 0.0	 0.0	 1	    1.03000	    0.00000	 220.0	 1	    1.11000	    0.95000;
	20	 1	 0.0	 0.0	 0.0	 0.0	 1	    1.03000	    0.00000	 220.0	 1	    1.11000	    0.95000;
	21	 1	 0.0	 0.0	 0.0	 0.0	 1	    1.03000	    0.00000	 220.0	 1	    1.11000	    0.95000;
	22	 1	 0.0	 0.0	 0.0	 0.0	 1	    1.03000	    0.00000	 220.0	 1	    1.11000	    0.95000;
	23	 1	 0.0	 0.0	 0.0	 0.0	 1	    1.03000	    0.00000	 220.0	 1	    1.11000	    0.95000;
	24	 1	 0.0	 0.0	 0.0	 0.0	 1	    1.03000	    0.00000	 220.0	 1	    1.11000	    0.95000;
	25	 1	 0.0	 0.0	 0.0	 -50.0	 1	    1.00000	    0.00000	 400.0	 1	    1.05000	    0.95000;
	26	 2	 91.45	 65.09	 0.0	 0.0	 1	    1.03000	    0.00000	 220.0	 1	    1.11000	    0.95000;
	27	 2	 53.42	 35.09	 0.0	 0.0	 1	    1.03000	    0.00000	 220.0	 1	    1.11000	    0.95000;
	28	 3	 0.0	 0.0	 0.0	 0.0	 1	    1.00000	    0.00000	 400.0	 1	    1.05000	    0.95000;
	29	 2	 84.84	 72.00	 0.0	 0.0	 1	    1.00000	    0.00000	 400.0	 1	    1.05000	    0.95000;
	30	 1	 0.0	 0.0	 0.0	 0.0	 1	    1.03000	    0.00000	 220.0	 1	    1.11000	    0.95000;
	31	 1	 0.0	 0.0	 0.0	 0.0	 1	    1.00000	    0.00000	 400.0	 1	    1.05000	    0.95000;
	32	 1	 0.0	 0.0	 0.0	 0.0	 1	    1.03000	    0.00000	 220.0	 1	    1.11000	    0.95000;
	33	 1	 0.0	 0.0	 0.0	 0.0	 1	    1.03000	    0.00000	 220.0	 1	    1.11000	    0.95000;
	34	 1	 0.0	 0.0	 0.0	 0.0	 1	    1.03000	    0.00000	 220.0	 2	    1.11000	    0.95000;
	35	 1	 0.0	 0.0	 0.0	 0.0	 1	    1.03000	    0.00000	 220.0	 2	    1.11000	    0.95000;
	36	 1	 0.0	 0.0	 0.0	 0.0	 1	    1.03000	    0.00000	 220.0	 2	    1.11000	    0.95000;
	37	 1	 0.0	 0.0	 0.0	 0.0	 1	    1.03000	    0.00000	 220.0	 2	    1.11000	    0.95000;
	38	 1	 0.0	 0.0	 0.0	 0.0	 1	    1.03000	    0.00000	 220.0	 2	    1.11000	    0.95000;
	39	 1	 0.0	 0.0	 0.0	 0.0	 1	    1.03000	    0.00000	 220.0	 2	    1.11000	    0.95000;
	40	 1	 0.0	 0.0	 0.0	 0.0	 1	    1.03000	    0.00000	 220.0	 2	    1.11000	    0.95000;
	41	 1	 0.0	 0.0	 0.0	 0.0	 1	    1.00000	    0.00000	 400.0	 2	    1.05000	    0.95000;
	42	 2	 13.00	 0.00	 0.0	 0.0	 1	    1.03000	    0.00000	 220.0	 2	    1.11000	    0.95000;
	43	 2	 13.00	 0.00	 0.0	 0.0	 1	    1.03000	    0.00000	 220.0	 2	    1.11000	    0.95000;
	44	 2	 25.00	 0.00	 0.0	 0.0	 1	    1.00000	    0.00000	 400.0	 2	    1.05000	    0.95000;
	45	 1	 0.0	 0.0	 0.0	 0.0	 1	    1.00000	    0.00000	 400.0	 2	    1.05000	    0.95000;
	46	 1	 0.0	 0.0	 0.0	 0.0	 1	    1.03000	    0.00000	 220.0	 2	    1.11000	    0.95000;
	47	 1	 0.0	 0.0	 0.0	 0.0	 1	    1.00000	    0.00000	 400.0	 2	    1.05000	    0.95000;
	48	 1	 0.0	 0.0	 0.0	 0.0	 1	    1.00000	    0.00000	 400.0	 2	    1.05000	    0.95000;
	49	 1	 0.0	 0.0	 0.0	 0.0	 1	    1.00000	    0.00000	 400.0	 2	    1.05000	    0.95000;
	50	 1	 0.0	 0.0	 0.0	 0.0	 1	    1.03000	    0.00000	 220.0	 2	    1.11000	    0.95000;
	51	 1	 0.0	 0.0	 0.0	 0.0	 1	    1.03000	    0.00000	 220.0	 2	    1.11000	    0.95000;
	52	 1	 0.0	 0.0	 0.0	 0.0	 1	    1.00000	    0.00000	 400.0	 2	    1.05000	    0.95000;
	53	 1	 0.0	 0.0	 0.0	 0.0	 1	    1.00000	    0.00000	 400.0	 2	    1.05000	    0.95000;
	54	 1	 0.0	 0.0	 0.0	 0.0	 1	    1.03000	    0.00000	 220.0	 2	    1.11000	    0.95000;
	55	 2	 13.00	 0.00	 0.0	 0.0	 1	    1.03000	    0.00000	 220.0	 2	    1.11000	    0.95000;
	56	 2	 13.00	 0.00	 0.0	 0.0	 1	    1.00000	    0.00000	 400.0	 2	    1.05000	    0.95000;
	57	 2	 13.00	 0.00	 0.0	 0.0	 1	    1.00000	    0.00000	 400.0	 2	    1.05000	    0.95000;
	58	 2	 128.85	 25.27	 0.0	 0.0	 1	    1.03000	    0.00000	 220.0	 2	    1.11000	    0.95000;
	59	 1	 0.0	 0.0	 0.0	 0.0	 1	    1.03000	    0.00000	 220.0	 2	    1.11000	    0.95000;
	60	 1	 0.0	 0.0	 0.0	 0.0	 1	    1.03000	    0.00000	 220.0	 2	    1.11000	    0.95000;
	61	 1	 0.0	 0.0	 0.0	 0.0	 1	    1.03000	    0.00000	 220.0	 2	    1.11000	    0.95000;
	62	 1	 0.0	 0.0	 0.0	 0.0	 1	    1.03000	    0.00000	 220.0	 2	    1.11000	    0.95000;
	63	 1	 0.0	 0.0	 0.0	 0.0	 1	    1.00000	    0.00000	 400.0	 2	    1.05000	    0.95000;
	64	 1	 0.0	 0.0	 0.0	 0.0	 1	    1.00000	    0.00000	 400.0	 2	    1.05000	    0.95000;
	65	 1	 0.00	 224.80	 0.0	 0.0	 1	    0.97500	    0.00000	 750.0	 2	    1.05000	    0.90000;
	66	 1	 0.0	 0.0	 0.0	 0.0	 1	    1.03000	    0.00000	 220.0	 2	    1.11000	    0.95000;
	67	 1	 0.0	 0.0	 0.0	 0.0	 1	    1.03000	    0.00000	 220.0	 2	    1.11000	    0.95000;
	68	 1	 0.0	 0.0	 0.0	 0.0	 1	    1.03000	    0.00000	 220.0	 2	    1.11000	    0.95000;
	69	 1	 0.0	 0.0	 0.0	 0.0	 1	    1.03000	    0.00000	 220.0	 3	    1.11000	    0.95000;
	70	 1	 0.0	 0.0	 0.0	 0.0	 1	    1.03000	    0.00000	 220.0	 3	    1.11000	    0.95000;
	71	 1	 0.0	 0.0	 0.0	 0.0	 1	    1.03000	    0.00000	 220.0	 3	    1.11000	    0.95000;
	72	 1	 0.0	 0.0	 0.0	 0.0	 1	    1.03000	    0.00000	 220.0	 3	    1.11000	    0.95000;
	73	 1	 0.0	 0.0	 0.0	 0.0	 1	    1.03000	    0.00000	 220.0	 3	    1.11000	    0.95000;
	74	 1	 0.0	 0.0	 0.0	 0.0	 1	    1.03000	    0.00000	 220.0	 3	    1.11000	    0.95000;
	75	 1	 0.0	 0.0	 0.0	 0.0	 1	    1.03000	    0.00000	 220.0	 3	    1.11000	    0.95000;
	76	 1	 0.0	 0.0	 0.0	 0.0	 1	    1.03000	    0.00000	 220.0	 3	    1.11000	    0.95000;
	77	 1	 0.0	 0.0	 0.0	 0.0	 1	    1.03000	    0.00000	 220.0	 3	    1.11000	    0.95000;
	78	 2	 51.25	 70.00	 0.0	 0.0	 1	    1.03000	    0.00000	 220.0	 3	    1.11000	    0.95000;
	79	 2	 17.08	 21.00	 0.0	 0.0	 1	    1.03000	    0.00000	 220.0	 3	    1.11000	    0.95000;
	80	 1	 8.74	 0.91	 0.0	 0.0	 1	    1.03000	    0.00000	 220.0	 3	    1.11000	    0.95000;
	81	 1	 0.0	 0.0	 0.0	 0.0	 1	    1.03000	    0.00000	 220.0	 3	    1.11000	    0.95000;
	82	 2	 34.17	 57.00	 0.0	 0.0	 1	    1.00000	    0.00000	 400.0	 3	    1.05000	    0.95000;
	83	 1	 0.0	 0.0	 0.0	 0.0	 1	    1.03000	    0.00000	 220.0	 3	    1.11000	    0.95000;
	84	 1	 0.0	 0.0	 0.0	 0.0	 1	    1.03000	    0.00000	 220.0	 3	    1.11000	    0.95000;
	85	 1	 0.0	 0.0	 0.0	 0.0	 1	    1.03000	    0.00000	 220.0	 3	    1.11000	    0.95000;
	86	 1	 32.97	 -8.40	 0.0	 0.0	 1	    1.03000	    0.00000	 220.0	 3	    1.11000	    0.95000;
	87	 1	 0.0	 0.0	 0.0	 0.0	 1	    1.03000	    0.00000	 220.0	 3	    1.11000	    0.95000;
	88	 1	 0.0	 0.0	 0.0	 0.0	 1	    1.03000	    0.00000	 220.0	 3	    1.11000	    0.95000;
	89	 1	 0.0	 0.0	 0.0	 0.0	 1	    1.03000	    0.00000	 220.0	 3	    1.11000	    0.95000;
	90	 1	 0.0	 0.0	 0.0	 0.0	 1	    1.03000	    0.00000	 220.0	 3	    1.11000	    0.95000;
	91	 1	 0.0	 0.0	 0.0	 0.0	 1	    1.03000	    0.00000	 220.0	 3	    1.11000	    0.95000;
	92	 1	 0.0	 0.0	 0.0	 0.0	 1	    1.00000	    0.00000	 400.0	 3	    1.05000	    0.95000;
	93	 1	 0.0	 0.0	 0.0	 0.0	 1	    1.00000	    0.00000	 400.0	 3	    1.05000	    0.95000;
	94	 1	 0.0	 0.0	 0.0	 0.0	 1	    1.03000	    0.00000	 220.0	 3	    1.11000	    0.95000;
	95	 1	 0.0	 0.0	 0.0	 0.0	 1	    1.03000	    0.00000	 220.0	 3	    1.11000	    0.95000;
	96	 1	 0.0	 0.0	 0.0	 0.0	 1	    1.03000	    0.00000	 220.0	 3	    1.11000	    0.95000;
	97	 1	 0.0	 0.0	 0.0	 0.0	 1	    1.03000	    0.00000	 220.0	 3	    1.11000	    0.95000;
	98	 2	 18.86	 2.19	 0.0	 0.0	 1	    1.03000	    0.00000	 220.0	 3	    1.11000	    0.95000;
	99	 1	 31.61	 3.29	 0.0	 0.0	 1	    1.03000	    0.00000	 220.0	 3	    1.11000	    0.95000;
	100	 1	 0.0	 0.0	 0.0	 0.0	 1	    1.03000	    0.00000	 220.0	 3	    1.11000	    0.95000;
	101	 1	 0.0	 0.0	 0.0	 0.0	 1	    1.03000	    0.00000	 220.0	 3	    1.11000	    0.95000;
	102	 1	 0.0	 0.0	 0.0	 0.0	 1	    1.03000	    0.00000	 220.0	 3	    1.11000	    0.95000;
	103	 1	 0.0	 0.0	 0.0	 0.0	 1	    1.03000	    0.00000	 220.0	 3	    1.11000	    0.95000;
	104	 2	 26.57	 40.00	 0.0	 0.0	 1	    1.03000	    0.00000	 220.0	 3	    1.11000	    0.95000;
	105	 1	 0.0	 0.0	 0.0	 0.0	 1	    1.03000	    0.00000	 220.0	 3	    1.11000	    0.95000;
	106	 2	 13.29	 18.00	 0.0	 0.0	 1	    1.03000	    0.00000	 220.0	 3	    1.11000	    0.95000;
	107	 1	 0.0	 0.0	 0.0	 0.0	 1	    1.03000	    0.00000	 220.0	 3	    1.11000	    0.95000;
	108	 1	 52.45	 5.87	 0.0	 0.0	 1	    1.03000	    0.00000	 220.0	 3	    1.11000	    0.95000;
	109	 1	 33.26	 3.34	 0.0	 0.0	 1	    1.03000	    0.00000	 220.0	 3	    1.11000	    0.95000;
	110	 1	 0.0	 0.0	 0.0	 0.0	 1	    1.03000	    0.00000	 220.0	 3	    1.11000	    0.95000;
	111	 1	 0.0	 0.0	 0.0	 0.0	 1	    1.03000	    0.00000	 220.0	 3	    1.11000	    0.95000;
	112	 1	 0.0	 0.0	 0.0	 0.0	 1	    1.03000	    0.00000	 220.0	 3	    1.11000	    0.95000;
	113	 1	 0.0	 0.0	 0.0	 0.0	 1	    1.03000	    0.00000	 220.0	 3	    1.11000	    0.95000;
	114	 1	 0.0	 0.0	 0.0	 0.0	 1	    1.03000	    0.00000	 220.0	 3	    1.11000	    0.95000;
	115	 1	 0.0	 0.0	 0.0	 0.0	 1	    1.00000	    0.00000	 400.0	 3	    1.05000	    0.95000;
	116	 1	 0.0	 0.0	 0.0	 0.0	 1	    1.03000	    0.00000	 220.0	 3	    1.11000	    0.95000;
	117	 2	 15.18	 15.00	 0.0	 0.0	 1	    1.03000	    0.00000	 220.0	 3	    1.11000	    0.95000;
	118	 1	 0.0	 0.0	 0.0	 0.0	 1	    1.03000	    0.00000	 220.0	 3	    1.11000	    0.95000;
	119	 1	 0.0	 0.0	 0.0	 0.0	 1	    1.03000	    0.00000	 220.0	 3	    1.11000	    0.95000;
	120	 1	 0.0	 0.0	 0.0	 0.0	 1	    1.00000	    0.00000	 400.0	 3	    1.05000	    0.95000;
	121	 1	 0.0	 0.0	 0.0	 0.0	 1	    1.00000	    0.00000	 400.0	 3	    1.05000	    0.95000;
	122	 1	 0.0	 0.0	 0.0	 0.0	 1	    1.00000	    0.00000	 400.0	 3	    1.05000	    0.95000;
	123	 1	 0.0	 0.0	 0.0	 0.0	 1	    1.00000	    0.00000	 400.0	 3	    1.05000	    0.95000;
	124	 1	 0.0	 0.0	 0.0	 0.0	 1	    1.03000	    0.00000	 220.0	 3	    1.11000	    0.95000;
	125	 1	 5.56	 0.87	 0.0	 0.0	 1	    1.03000	    0.00000	 220.0	 3	    1.11000	    0.95000;
	126	 2	 37.77	 27.71	 0.0	 0.0	 1	    1.03000	    0.00000	 220.0	 3	    1.11000	    0.95000;
	127	 2	 23.16	 25.80	 0.0	 0.0	 1	    1.00000	    0.00000	 400.0	 3	    1.05000	    0.95000;
	128	 1	 0.0	 0.0	 0.0	 0.0	 1	    1.00000	    0.00000	 400.0	 3	    1.05000	    0.95000;
	129	 1	 0.0	 0.0	 0.0	 0.0	 1	    1.03000	    0.00000	 220.0	 3	    1.11000	    0.95000;
	130	 1	 0.0	 0.0	 0.0	 0.0	 1	    1.03000	    0.00000	 220.0	 3	    1.11000	    0.95000;
	131	 1	 0.0	 0.0	 0.0	 0.0	 1	    1.03000	    0.00000	 220.0	 3	    1.11000	    0.95000;
	132	 2	 260.04	 9.00	 0.0	 0.0	 1	    1.03000	    0.00000	 220.0	 3	    1.11000	    0.95000;
	133	 2	 260.04	 6.00	 0.0	 0.0	 1	    1.03000	    0.00000	 220.0	 3	    1.11000	    0.95000;
	134	 1	 0.98	 1.97	 0.0	 0.0	 1	    1.03000	    0.00000	 220.0	 4	    1.11000	    0.95000;
	135	 2	 28.93	 14.28	 0.0	 0.0	 1	    1.03000	    0.00000	 220.0	 4	    1.11000	    0.95000;
	136	 1	 0.0	 0.0	 0.0	 0.0	 1	    1.03000	    0.00000	 220.0	 4	    1.11000	    0.95000;
	137	 1	 0.0	 0.0	 0.0	 0.0	 1	    1.03000	    0.00000	 220.0	 4	    1.11000	    0.95000;
	138	 1	 0.0	 0.0	 0.0	 0.0	 1	    1.00000	    0.00000	 400.0	 4	    1.05000	    0.95000;
	139	 1	 0.0	 0.0	 0.0	 0.0	 1	    1.00000	    0.00000	 400.0	 4	    1.05000	    0.95000;
	140	 1	 0.0	 0.0	 0.0	 0.0	 1	    1.03000	    0.00000	 220.0	 4	    1.11000	    0.95000;
	141	 1	 0.0	 0.0	 0.0	 0.0	 1	    1.03000	    0.00000	 220.0	 4	    1.11000	    0.95000;
	142	 1	 0.0	 0.0	 0.0	 0.0	 1	    1.03000	    0.00000	 220.0	 4	    1.11000	    0.95000;
	143	 1	 0.0	 0.0	 0.0	 0.0	 1	    1.03000	    0.00000	 220.0	 4	    1.11000	    0.95000;
	144	 1	 0.0	 0.0	 0.0	 0.0	 1	    1.03000	    0.00000	 220.0	 4	    1.11000	    0.95000;
	145	 1	 0.0	 0.0	 0.0	 0.0	 1	    1.03000	    0.00000	 220.0	 4	    1.11000	    0.95000;
	146	 1	 14.49	 13.26	 0.0	 0.0	 1	    1.03000	    0.00000	 220.0	 4	    1.11000	    0.95000;
	147	 1	 0.0	 0.0	 0.0	 0.0	 1	    1.03000	    0.00000	 220.0	 4	    1.11000	    0.95000;
	148	 2	 20.63	 14.87	 0.0	 0.0	 1	    1.03000	    0.00000	 220.0	 4	    1.11000	    0.95000;
	149	 1	 0.0	 0.0	 0.0	 0.0	 1	    1.03000	    0.00000	 220.0	 4	    1.11000	    0.95000;
	150	 2	 20.86	 15.00	 0.0	 0.0	 1	    1.00000	    0.00000	 400.0	 4	    1.05000	    0.95000;
	151	 2	 39.24	 21.48	 0.0	 0.0	 1	    1.00000	    0.00000	 400.0	 4	    1.05000	    0.95000;
	152	 1	 0.0	 0.0	 0.0	 0.0	 1	    1.03000	    0.00000	 220.0	 4	    1.11000	    0.95000;
	153	 1	 0.0	 0.0	 0.0	 0.0	 1	    1.03000	    0.00000	 220.0	 4	    1.11000	    0.95000;
	154	 1	 0.0	 0.0	 0.0	 0.0	 1	    1.03000	    0.00000	 220.0	 4	    1.11000	    0.95000;
	155	 2	 0.0	 0.0	 0.0	 0.0	 1	    1.03000	    0.00000	 220.0	 4	    1.11000	    0.95000;
	156	 2	 26.33	 33.00	 0.0	 0.0	 1	    1.03000	    0.00000	 220.0	 4	    1.11000	    0.95000;
	157	 1	 0.0	 0.0	 0.0	 0.0	 1	    1.00000	    0.00000	 400.0	 4	    1.05000	    0.95000;
	158	 2	 18.96	 25.00	 0.0	 0.0	 1	    1.00000	    0.00000	 400.0	 4	    1.05000	    0.95000;
	159	 1	 0.0	 0.0	 0.0	 0.0	 1	    1.03000	    0.00000	 220.0	 4	    1.11000	    0.95000;
	160	 1	 0.0	 0.0	 0.0	 0.0	 1	    1.03000	    0.00000	 220.0	 4	    1.11000	    0.95000;
	161	 1	 0.0	 0.0	 0.0	 0.0	 1	    1.00000	    0.00000	 400.0	 4	    1.05000	    0.95000;
	162	 1	 0.0	 0.0	 0.0	 0.0	 1	    1.00000	    0.00000	 400.0	 4	    1.05000	    0.95000;
	163	 1	 0.0	 0.0	 0.0	 0.0	 1	    1.00000	    0.00000	 400.0	 4	    1.05000	    0.95000;
	164	 2	 22.14	 11.00	 0.0	 0.0	 1	    1.03000	    0.00000	 220.0	 4	    1.11000	    0.95000;
	165	 2	 21.95	 10.67	 0.0	 0.0	 1	    1.03000	    0.00000	 220.0	 4	    1.11000	    0.95000;
	166	 1	 0.0	 0.0	 0.0	 0.0	 1	    1.03000	    0.00000	 220.0	 4	    1.11000	    0.95000;
	167	 1	 0.0	 0.0	 0.0	 0.0	 1	    1.03000	    0.00000	 220.0	 4	    1.11000	    0.95000;
	168	 1	 0.0	 0.0	 0.0	 0.0	 1	    1.03000	    0.00000	 220.0	 4	    1.11000	    0.95000;
	169	 1	 0.0	 0.0	 0.0	 0.0	 1	    1.03000	    0.00000	 220.0	 4	    1.11000	    0.95000;
	170	 1	 0.0	 0.0	 0.0	 0.0	 1	    1.03000	    0.00000	 220.0	 4	    1.11000	    0.95000;
	171	 1	 0.0	 0.0	 0.0	 0.0	 1	    1.00000	    0.00000	 400.0	 4	    1.05000	    0.95000;
	172	 1	 0.0	 0.0	 0.0	 0.0	 1	    1.00000	    0.00000	 400.0	 4	    1.05000	    0.95000;
	173	 1	 0.0	 0.0	 0.0	 0.0	 1	    1.03000	    0.00000	 220.0	 4	    1.11000	    0.95000;
	174	 1	 0.0	 0.0	 0.0	 0.0	 1	    1.03000	    0.00000	 220.0	 4	    1.11000	    0.95000;
	175	 1	 0.0	 0.0	 0.0	 0.0	 1	    1.03000	    0.00000	 220.0	 4	    1.11000	    0.95000;
	176	 1	 0.0	 0.0	 0.0	 0.0	 1	    1.03000	    0.00000	 220.0	 4	    1.11000	    0.95000;
	177	 1	 0.0	 0.0	 0.0	 0.0	 1	    1.03000	    0.00000	 220.0	 4	    1.11000	    0.95000;
	178	 1	 0.0	 0.0	 0.0	 0.0	 1	    1.03000	    0.00000	 220.0	 4	    1.11000	    0.95000;
	179	 1	 0.0	 0.0	 0.0	 0.0	 1	    1.03000	    0.00000	 220.0	 4	    1.11000	    0.95000;
	180	 2	 5.94	 1.50	 0.0	 0.0	 1	    1.03000	    0.00000	 220.0	 4	    1.11000	    0.95000;
	181	 1	 0.0	 0.0	 0.0	 0.0	 1	    1.03000	    0.00000	 220.0	 4	    1.11000	    0.95000;
	182	 1	 0.0	 0.0	 0.0	 0.0	 1	    1.03000	    0.00000	 220.0	 5	    1.11000	    0.95000;
	183	 1	 0.0	 0.0	 0.0	 0.0	 1	    1.03000	    0.00000	 220.0	 5	    1.11000	    0.95000;
	184	 1	 0.0	 0.0	 0.0	 0.0	 1	    1.00000	    0.00000	 400.0	 5	    1.05000	    0.95000;
	185	 1	 0.0	 0.0	 0.0	 0.0	 1	    1.00000	    0.00000	 400.0	 5	    1.05000	    0.95000;
	186	 1	 0.0	 0.0	 0.0	 0.0	 1	    1.00000	    0.00000	 400.0	 5	    1.05000	    0.95000;
	187	 1	 0.0	 0.0	 0.0	 0.0	 1	    1.00000	    0.00000	 400.0	 5	    1.05000	    0.95000;
	188	 1	 0.0	 0.0	 0.0	 0.0	 1	    1.03000	    0.00000	 220.0	 5	    1.11000	    0.95000;
	189	 1	 0.0	 0.0	 0.0	 0.0	 1	    1.03000	    0.00000	 220.0	 5	    1.11000	    0.95000;
	190	 1	 0.0	 0.0	 0.0	 0.0	 1	    1.03000	    0.00000	 220.0	 5	    1.11000	    0.95000;
	191	 1	 0.0	 0.0	 0.0	 0.0	 1	    1.03000	    0.00000	 220.0	 5	    1.11000	    0.95000;
	192	 1	 0.0	 0.0	 0.0	 0.0	 1	    1.00000	    0.00000	 400.0	 5	    1.05000	    0.95000;
	193	 1	 0.0	 0.0	 0.0	 0.0	 1	    1.03000	    0.00000	 220.0	 5	    1.11000	    0.95000;
	194	 1	 0.0	 0.0	 0.0	 0.0	 1	    1.03000	    0.00000	 220.0	 5	    1.11000	    0.95000;
	195	 1	 0.0	 0.0	 0.0	 0.0	 1	    1.00000	    0.00000	 400.0	 5	    1.05000	    0.95000;
	196	 1	 0.0	 0.0	 0.0	 0.0	 1	    1.00000	    0.00000	 400.0	 5	    1.05000	    0.95000;
	197	 1	 0.0	 0.0	 0.0	 0.0	 1	    1.03000	    0.00000	 220.0	 5	    1.11000	    0.95000;
	198	 1	 0.0	 0.0	 0.0	 0.0	 1	    1.03000	    0.00000	 220.0	 5	    1.11000	    0.95000;
	199	 1	 0.0	 0.0	 0.0	 -117.0	 1	    1.00000	    0.00000	 400.0	 5	    1.05000	    0.95000;
	200	 1	 0.0	 0.0	 0.0	 0.0	 1	    1.00000	    0.00000	 400.0	 5	    1.05000	    0.95000;
...
];

%% generator data
%	bus	Pg	Qg	Qmax	Qmin	Vg	mBase	status	Pmax	Pmin
mpc.gen = [
	17	 317.5	 0.0	 283.0	 -283.0	 1.03	 241.9	 0	 565	 70.0; % NG
	17	 155.0	 0.0	 120.0	 -120.0	 1.03	 233.2	 0	 240	 70.0; % NG
	26	 698.5	 0.0	 626.0	 -626.0	 1.03	 415.9	 1	 1252	 145.0; % COW
	27	 297.0	 0.0	 225.0	 -225.0	 1.03	 407.1	 1	 449	 145.0; % NG
	27	 321.0	 0.0	 249.0	 -249.0	 1.03	 407.1	 0	 497	 145.0; % COW
	27	 246.0	 8.0	 190.0	 -174.0	 1.03	 415.9	 0	 347	 145.0; % NG
	26	 324.0	 0.0	 252.0	 -252.0	 1.03	 415.9	 1	 503	 145.0; % NG
	28	 350.0	 0.0	 278.0	 -278.0	 1.0	 415.9	 1	 555	 145.0; % NG
	28	 271.0	 0.0	 199.0	 -199.0	 1.0	 415.9	 0	 397	 145.0; % NG
	28	 392.5	 0.0	 320.0	 -320.0	 1.0	 415.9	 0	 640	 145.0; % NG
	29	 251.0	 5.5	 190.0	 -179.0	 1.0	 415.9	 0	 357	 145.0; % NG
	29	 362.5	 0.0	 290.0	 -290.0	 1.0	 415.9	 1	 580	 145.0; % NG
	29	 276.5	 0.0	 204.0	 -204.0	 1.0	 415.9	 1	 408	 145.0; % NG
	42	 237.5	 0.0	 205.0	 -205.0	 1.03	 253.9	 1	 410	 65.0; % NG
	42	 241.25	 0.0	 208.0	 -208.0	 1.03	 242.7	 0	 415	 67.5; % NG
	42	 159.0	 6.5	 145.0	 -132.0	 1.03	 267.7	 0	 263	 55.0; % NG
	43	 140.0	 17.5	 145.0	 -110.0	 1.03	 267.7	 0	 220	 60.0; % NG
	43	 148.0	 14.5	 145.0	 -116.0	 1.03	 267.7	 1	 231	 65.0; % NG
	43	 123.25	 20.0	 130.0	 -90.0	 1.03	 242.7	 0	 179	 67.5; % NG
	44	 249.25	 88.5	 363.0	 -186.0	 1.0	 646.5	 1	 371	 127.5; % NG
	44	 291.0	 59.5	 348.0	 -229.0	 1.0	 659.3	 0	 457	 125.0; % NG
	54	 259.75	 0.0	 228.0	 -228.0	 1.03	 247.9	 0	 455	 64.5; % NG
	55	 194.25	 0.0	 162.0	 -162.0	 1.03	 259.9	 1	 324	 64.5; % NG
	54	 125.75	 18.0	 130.0	 -94.0	 1.03	 259.9	 0	 187	 64.5; % NG
	56	 446.25	 0.0	 414.0	 -414.0	 1.0	 259.9	 1	 828	 64.5; % COW
	57	 427.75	 0.0	 396.0	 -396.0	 1.0	 259.9	 1	 791	 64.5; % COW
	57	 147.75	 0.0	 116.0	 -116.0	 1.0	 247.9	 0	 231	 64.5; % COW
	57	 175.75	 0.0	 144.0	 -144.0	 1.0	 259.9	 0	 287	 64.5; % NG
	58	 65.925	 0.0	 57.6	 -57.6	 1.03	 57.7	 1	 112	 19.85; % NG
	78	 219.5	 0.0	 185.0	 -185.0	 1.03	 256.4	 1	 369	 70.0; % NG
	78	 154.5	 1.5	 123.0	 -120.0	 1.03	 256.4	 1	 239	 70.0; % NG
	79	 231.5	 0.0	 197.0	 -197.0	 1.03	 252.0	 0	 393	 70.0; % COW
	79	 139.5	 9.0	 123.0	 -105.0	 1.03	 256.4	 0	 209	 70.0; % NG
	79	 512.0	 0.0	 477.0	 -477.0	 1.03	 256.4	 1	 954	 70.0; % NG
	82	 371.0	 0.0	 316.0	 -316.0	 1.0	 445.2	 1	 632	 110.0; % NG
	82	 248.0	 17.5	 228.0	 -193.0	 1.0	 434.6	 0	 386	 110.0; % NG
	98	 169.7495	 0.0	 168.0	 -168.0	 1.03	 12.0	 1	 335	 4.499; % NG
	98	 45.4995	 0.0	 44.0	 -44.0	 1.03	 6.1	 1	 88	 2.999; % PEL
	104	 433.5	 0.0	 829.2	 -829.2	 1.03	 256.4	 1	 800	 67.0; % NG
	105	 170.5	 0.0	 137.0	 -137.0	 1.03	 256.4	 0	 274	 67.0; % NG
	106	 105.75	 0.0	 225.6	 -225.6	 1.03	 144.2	 1	 172	 39.5; % NG
	107	 98.75	 0.5	 80.0	 -79.0	 1.03	 144.2	 0	 158	 39.5; % NG
	116	 146.5	 0.0	 124.0	 -124.0	 1.03	 150.0	 0	 248	 45.0; % NG
	117	 106.0	 0.0	 89.0	 -89.0	 1.03	 145.3	 1	 177	 35.0; % NG
	118	 212.0	 0.0	 192.0	 -192.0	 1.03	 117.0	 0	 384	 40.0; % NG
	125	 255.0	 0.0	 215.0	 -215.0	 1.03	 253.9	 0	 430	 80.0; % NG
	126	 136.5	 19.0	 140.0	 -102.0	 1.03	 265.0	 0	 203	 70.0; % NG
	126	 173.5	 0.0	 349.2	 -349.2	 1.03	 253.9	 1	 267	 80.0; % NG
	127	 364.0	 0.0	 329.0	 -329.0	 1.0	 265.0	 1	 658	 70.0; % NG
	127	 208.5	 0.0	 169.0	 -169.0	 1.0	 259.2	 0	 337	 80.0; % NG
	132	 0.0	 0.0	 153.6	 -153.6	 1.03	 131.2	 1	 0	 0.0; % SYNC
	132	 0.0	 1.0	 40.0	 -38.0	 1.03	 131.2	 0	 0	 0.0; % SYNC
	133	 0.0	 1.0	 40.0	 -38.0	 1.03	 131.2	 0	 0	 0.0; % SYNC
	133	 0.0	 0.0	 152.4	 -152.4	 1.03	 131.2	 1	 0	 0.0; % SYNC
	134	 84.0	 15.5	 90.0	 -59.0	 1.03	 150.0	 0	 118	 50.0; % NG
	134	 291.0	 0.0	 266.0	 -266.0	 1.03	 150.0	 0	 532	 50.0; % NG
	135	 98.0	 8.5	 90.0	 -73.0	 1.03	 150.0	 1	 146	 50.0; % NG
	146	 41.5	 0.0	 34.0	 -34.0	 1.03	 51.4	 0	 68	 15.0; % NG
	146	 58.0	 0.0	 51.0	 -51.0	 1.03	 51.4	 0	 101	 15.0; % PEL
	147	 246.0	 0.0	 224.0	 -224.0	 1.03	 150.0	 0	 447	 45.0; % NG
	148	 117.0	 27.0	 149.0	 -95.0	 1.03	 267.4	 0	 189	 45.0; % NG
	148	 127.25	 27.5	 149.0	 -94.0	 1.03	 253.4	 0	 187	 67.5; % COW
	148	 140.75	 21.0	 149.0	 -107.0	 1.03	 253.4	 0	 214	 67.5; % NG
	148	 115.0	 27.1	 149.0	 -94.8	 1.03	 267.4	 1	 185	 45.0; % COW
	150	 117.5	 11.1	 123.0	 -100.8	 1.0	 253.8	 1	 190	 45.0; % NG
	151	 212.0	 0.0	 190.0	 -190.0	 1.0	 267.4	 1	 379	 45.0; % NG
	151	 206.0	 0.0	 184.0	 -184.0	 1.0	 253.8	 0	 367	 45.0; % NG
	155	 186.0	 0.0	 163.0	 -163.0	 1.03	 278.3	 1	 325	 47.0; % NG
	155	 120.5	 26.0	 149.0	 -97.0	 1.03	 278.3	 0	 194	 47.0; % NG
	155	 188.0	 0.0	 162.0	 -162.0	 1.03	 287.3	 0	 324	 52.0; % NG
	155	 275.0	 0.0	 249.0	 -249.0	 1.03	 292.5	 0	 498	 52.0; % NG
	156	 156.5	 0.0	 131.0	 -131.0	 1.03	 287.3	 0	 261	 52.0; % NG
	156	 136.0	 6.5	 117.0	 -104.0	 1.03	 236.0	 1	 207	 65.0; % NG
	156	 160.5	 0.0	 131.0	 -131.0	 1.03	 233.1	 1	 261	 60.0; % NG
	156	 239.0	 0.0	 209.0	 -209.0	 1.03	 233.1	 0	 418	 60.0; % NG
	158	 169.0	 0.0	 196.8	 -196.8	 1.0	 233.1	 1	 278	 60.0; % NG
	164	 155.0	 0.0	 118.0	 -118.0	 1.03	 225.4	 0	 235	 75.0; % NG
	164	 224.0	 0.0	 187.0	 -187.0	 1.03	 225.4	 1	 373	 75.0; % COW
	165	 170.0	 0.0	 133.0	 -133.0	 1.03	 225.4	 1	 265	 75.0; % NG
	165	 128.5	 6.5	 104.0	 -91.0	 1.03	 225.4	 0	 182	 75.0; % COW
	180	 133.5	 3.0	 110.0	 -104.0	 1.03	 219.5	 1	 207	 60.0; % NG
	205	 0.0	 17.2	 80.0	 -45.6	 1.0	 196.1	 1	 0	 0.0; % SYNC
	205	 0.0	 17.2	 80.0	 -45.6	 1.0	 196.1	 1	 0	 0.0; % SYNC
	205	 0.0	 25.0	 110.0	 -60.0	 1.0	 210.1	 0	 0	 0.0; % SYNC
	206	 0.0	 25.0	 110.0	 -60.0	 1.0	 210.1	 0	 0	 0.0; % SYNC
	215	 82.75	 0.0	 77.0	 -77.0	 1.035	 58.5	 1	 154	 11.5; % NG
	215	 0.0	 4.0	 20.0	 -12.0	 1.035	 53.9	 0	 0	 0.0; % SYNC
	215	 0.0	 4.0	 20.0	 -12.0	 1.035	 53.9	 0	 0	 0.0; % SYNC
	215	 84.25	 0.0	 83.0	 -83.0	 1.035	 30.5	 1	 165	 3.5; % COW
	221	 16.3875	 0.0	 16.0	 -16.0	 1.035	 2.3	 1	 32	 0.775; % PEL
	222	 19.8875	 0.0	 20.0	 -20.0	 1.035	 2.3	 1	 39	 0.775; % NG
	240	 66.575	 0.0	 65.0	 -65.0	 1.035	 9.8	 1	 130	 3.15; % NG
	247	 289.0	 0.0	 229.2	 -229.2	 1.035	 415.9	 1	 433	 145.0; % COW
	310	 0.0	 1.4	 7.0	 -4.2	 1.035	 27.9	 0	 0	 0.0; % SYNC
	310	 0.0	 1.4	 7.0	 -4.2	 1.035	 27.9	 0	 0	 0.0; % SYNC
	310	 44.25	 0.0	 42.0	 -42.0	 1.035	 30.8	 1	 83	 5.5; % NG
	310	 0.0	 1.4	 7.0	 -4.2	 1.035	 27.9	 0	 0	 0.0; % SYNC
	310	 0.0	 1.2	 6.0	 -3.6	 1.035	 27.7	 0	 0	 0.0; % SYNC
	310	 0.0	 1.4	 7.0	 -4.2	 1.035	 27.9	 0	 0	 0.0; % SYNC
	310	 0.0	 1.4	 7.0	 -4.2	 1.035	 27.9	 0	 0	 0.0; % SYNC
	311	 0.0	 3.0	 15.0	 -9.0	 1.035	 36.7	 0	 0	 0.0; % SYNC
	311	 0.0	 3.0	 15.0	 -9.0	 1.035	 57.0	 0	 0	 0.0; % SYNC
	312	 136.5	 0.0	 133.0	 -133.0	 1.035	 36.7	 1	 265	 8.0; % NG
	312	 0.0	 3.0	 15.0	 -9.0	 1.035	 57.0	 0	 0	 0.0; % SYNC
	314	 74.75	 0.0	 69.0	 -69.0	 1.035	 53.9	 1	 137	 12.5; % NG
	314	 0.0	 4.0	 20.0	 -12.0	 1.035	 53.9	 0	 0	 0.0; % SYNC
	315	 0.0	 8.0	 40.0	 -24.0	 1.035	 107.7	 0	 0	 0.0; % SYNC
	323	 23.125	 0.0	 23.0	 -23.0	 1.035	 4.1	 1	 45	 1.25; % PEL
	366	 93.5	 0.0	 84.0	 -84.0	 1.035	 47.8	 1	 167	 20.0; % COW
	367	 118.0	 0.0	 108.0	 -108.0	 1.035	 47.8	 1	 216	 20.0; % NG
	368	 69.5	 0.0	 60.0	 -60.0	 1.035	 47.8	 1	 119	 20.0; % NG
	369	 67.0	 0.0	 57.0	 -57.0	 1.035	 47.8	 1	 114	 20.0; % NG
	386	 156.0	 8.5	 138.0	 -121.0	 1.035	 251.3	 1	 242	 70.0; % NG
	386	 38.5	 0.0	 36.0	 -36.0	 1.035	 26.9	 0	 71	 6.0; % PEL
	387	 76.0	 0.0	 74.0	 -74.0	 1.035	 19.7	 1	 147	 5.0; % PEL
	444	 19.375	 0.0	 19.0	 -19.0	 1.035	 3.6	 1	 38	 0.75; % PEL
	453	 62.3025	 0.0	 61.0	 -61.0	 1.035	 6.1	 1	 122	 2.605; % NG
	453	 0.0	 0.4	 2.0	 -1.2	 1.035	 6.1	 0	 0	 0.0; % SYNC
	486	 28.85	 0.0	 29.0	 -29.0	 1.035	 1.7	 1	 57	 0.7; % PEL
	537	 88.75	 0.0	 83.0	 -83.0	 1.035	 53.9	 1	 165	 12.5; % NG
	537	 0.0	 2.8	 14.0	 -8.4	 1.035	 34.9	 0	 0	 0.0; % SYNC
	537	 0.0	 2.8	 14.0	 -8.4	 1.035	 34.0	 0	 0	 0.0; % SYNC
	537	 0.0	 2.8	 14.0	 -8.4	 1.035	 105.9	 0	 0	 0.0; % SYNC
	537	 0.0	 2.8	 14.0	 -8.4	 1.035	 105.9	 0	 0	 0.0; % SYNC
	538	 49.5	 0.0	 45.0	 -45.0	 1.035	 36.5	 1	 89	 10.0; % PEL
	538	 64.0	 0.0	 59.0	 -59.0	 1.035	 35.6	 1	 118	 10.0; % PEL
	538	 0.0	 3.5	 17.5	 -10.5	 1.035	 126.2	 0	 0	 0.0; % SYNC
	538	 0.0	 3.5	 17.5	 -10.5	 1.035	 106.4	 0	 0	 0.0; % SYNC
	552	 56.35	 0.0	 56.0	 -56.0	 1.035	 1.7	 1	 112	 0.7; % NG
	560	 112.125	 0.0	 107.0	 -107.0	 1.035	 35.4	 1	 213	 11.25; % NG
	560	 0.0	 1.0	 5.0	 -3.0	 1.035	 28.4	 0	 0	 0.0; % SYNC
	560	 0.0	 1.0	 5.0	 -3.0	 1.035	 26.5	 0	 0	 0.0; % SYNC
	560	 0.0	 1.0	 5.0	 -3.0	 1.035	 30.4	 0	 0	 0.0; % SYNC
	560	 0.0	 1.0	 5.0	 -3.0	 1.035	 34.4	 0	 0	 0.0; % SYNC
	561	 110.125	 0.0	 105.0	 -105.0	 1.035	 35.4	 1	 209	 11.25; % NG
	561	 0.0	 1.0	 5.0	 -3.0	 1.035	 34.4	 0	 0	 0.0; % SYNC
	561	 0.0	 1.0	 5.0	 -3.0	 1.035	 26.5	 0	 0	 0.0; % SYNC
	561	 0.0	 1.0	 5.0	 -3.0	 1.035	 34.4	 0	 0	 0.0; % SYNC
	574	 41.25	 0.0	 41.0	 -41.0	 1.035	 8.9	 1	 82	 0.5; % PEL
	627	 161.0	 0.0	 142.0	 -142.0	 1.035	 97.7	 1	 284	 38.0; % NG
	627	 76.0	 0.0	 69.0	 -69.0	 1.035	 46.8	 1	 137	 15.0; % PEL
	665	 138.5	 19.5	 145.0	 -106.0	 1.035	 267.7	 1	 212	 65.0; % NG
	666	 187.0	 0.0	 155.0	 -155.0	 1.035	 267.7	 0	 309	 65.0; % NG
	686	 235.0	 0.0	 200.0	 -200.0	 1.035	 182.5	 1	 400	 70.0; % NG
	686	 51.75	 0.0	 40.0	 -40.0	 1.035	 77.5	 1	 80	 23.5; % PEL
	692	 19.495	 0.0	 19.0	 -19.0	 1.035	 2.7	 1	 38	 0.99; % PEL
	717	 23.83	 0.0	 24.0	 -24.0	 1.035	 10.1	 1	 47	 0.66; % NG
	741	 156.25	 3.0	 130.0	 -124.0	 1.035	 259.9	 1	 248	 64.5; % NG
	764	 87.0	 0.0	 67.0	 -67.0	 1.035	 105.4	 1	 133	 41.0; % NG
	793	 123.25	 0.0	 123.0	 -123.0	 1.035	 8.3	 1	 246	 0.5; % PEL
	797	 0.0	 4.6	 23.0	 -13.8	 1.035	 71.9	 0	 0	 0.0; % SYNC
	797	 0.0	 4.6	 23.0	 -13.8	 1.035	 71.9	 0	 0	 0.0; % SYNC
	797	 0.0	 2.2	 11.0	 -6.6	 1.035	 32.9	 0	 0	 0.0; % SYNC
	797	 0.0	 2.0	 10.0	 -6.0	 1.035	 32.6	 0	 0	 0.0; % SYNC
	808	 79.5	 0.0	 59.0	 -59.0	 1.035	 125.4	 0	 117	 42.0; % NG
	809	 217.5	 0.0	 195.0	 -195.0	 1.035	 125.4	 1	 389	 46.0; % NG
	846	 41.249	 0.0	 38.0	 -38.0	 1.035	 33.0	 1	 75	 7.498; % NG
	846	 37.249	 0.0	 34.0	 -34.0	 1.035	 33.0	 1	 67	 7.498; % NG
	846	 0.0	 0.0	 0.0	 0.0	 1.035	 19.0	 0	 0	 0.0; % SYNC
	846	 0.0	 0.0	 0.0	 0.0	 1.035	 19.0	 0	 0	 0.0; % SYNC
	878	 95.7475	 0.0	 87.0	 -87.0	 1.035	 87.7	 1	 174	 17.495; % PEL
	901	 0.0	 12.0	 45.0	 -21.0	 1.035	 65.8	 0	 0	 0.0; % SYNC
	901	 246.247	 0.0	 235.0	 -235.0	 1.035	 71.1	 1	 470	 22.494; % NG
	901	 0.0	 12.0	 45.0	 -21.0	 1.035	 71.1	 0	 0	 0.0; % SYNC
	976	 0.0	 35.0	 110.0	 -40.0	 1.035	 162.2	 0	 0	 0.0; % SYNC
	977	 142.49325	 0.0	 118.0	 -118.0	 1.035	 162.2	 1	 235	 49.9865; % NG
	981	 0.0	 0.0	 0.0	 0.0	 1.035	 16.8	 0	 0	 0.0; % SYNC
	1002	 364.0	 0.0	 309.0	 -309.0	 1.035	 454.5	 1	 618	 110.0; % NG
	1003	 272.5	 4.5	 227.0	 -218.0	 1.035	 434.1	 0	 435	 110.0; % NG
	1007	 21.9995	 0.0	 85.2	 -85.2	 1.035	 7.1	 1	 41	 2.999; % NG
	1006	 20.49975	 0.0	 236.4	 -236.4	 1.035	 4.0	 1	 39	 1.9995; % NG
	1007	 37.49975	 0.0	 85.2	 -85.2	 1.035	 5.0	 1	 73	 1.9995; % PEL
	1007	 0.0	 0.0	 0.0	 0.0	 1.035	 6.0	 0	 0	 0.0; % SYNC
	1008	 0.0	 35.0	 110.0	 -40.0	 1.035	 174.1	 0	 0	 0.0; % SYNC
	1014	 135.249	 0.0	 132.0	 -132.0	 1.035	 20.6	 1	 263	 7.498; % NG
	1014	 0.0	 0.0	 0.0	 0.0	 1.035	 12.8	 0	 0	 0.0; % SYNC
	1014	 0.0	 0.0	 0.0	 0.0	 1.035	 12.5	 0	 0	 0.0; % SYNC
	1016	 0.0	 0.0	 0.0	 0.0	 1.035	 20.0	 0	 0	 0.0; % SYNC
	1016	 0.0	 0.0	 0.0	 0.0	 1.035	 19.0	 0	 0	 0.0; % SYNC
	1025	 173.99925	 0.0	 171.0	 -171.0	 1.035	 30.0	 1	 342	 5.9985; % NG
	1026	 0.0	 0.9	 18.0	 -16.2	 1.035	 30.0	 0	 0	 0.0; % SYNC
	1027	 0.0	 -0.35	 14.0	 -14.7	 1.035	 32.2	 0	 0	 0.0; % SYNC
	1114	 0.0	 2.46	 37.5	 -32.58	 1.035	 62.5	 0	 0	 0.0; % SYNC
	1115	 0.0	 5.25	 37.5	 -27.0	 1.035	 62.5	 0	 0	 0.0; % SYNC
	1114	 142.49725	 0.0	 180.0	 -180.0	 1.035	 62.5	 1	 265	 19.9945; % NG
	1116	 0.0	 2.46	 37.5	 -32.58	 1.035	 62.5	 0	 0	 0.0; % SYNC
	1153	 79.74875	 0.0	 76.0	 -76.0	 1.035	 30.5	 1	 151	 8.4975; % PEL
	1153	 0.0	 0.0	 0.0	 0.0	 1.035	 6.0	 0	 0	 0.0; % SYNC
	1154	 57.24875	 0.0	 53.0	 -53.0	 1.035	 30.5	 1	 106	 8.4975; % PEL
	1154	 0.0	 0.0	 0.0	 0.0	 1.035	 25.0	 0	 0	 0.0; % SYNC
	1155	 105.499	 0.0	 102.0	 -102.0	 1.035	 30.5	 1	 203	 7.998; % COW
	1155	 0.0	 0.0	 0.0	 0.0	 1.035	 6.0	 0	 0	 0.0; % SYNC
	1180	 86.996	 0.0	 72.0	 -72.0	 1.035	 87.5	 1	 144	 29.992; % NG
	1181	 0.0	 10.5	 52.5	 -31.5	 1.035	 87.5	 0	 0	 0.0; % SYNC
	1181	 0.0	 3.36	 42.0	 -35.28	 1.035	 65.3	 0	 0	 0.0; % SYNC
	1189	 83.4965	 0.0	 71.0	 -71.0	 1.035	 50.0	 1	 142	 24.993; % NG
	1247	 70.99925	 0.0	 69.0	 -69.0	 1.035	 16.7	 1	 137	 4.9985; % PEL
	1247	 0.0	 0.0	 0.0	 0.0	 1.035	 24.0	 0	 0	 0.0; % SYNC
	1248	 0.0	 0.0	 0.0	 0.0	 1.035	 14.6	 0	 0	 0.0; % SYNC
	1248	 0.0	 0.0	 0.0	 0.0	 1.035	 14.6	 0	 0	 0.0; % SYNC
...
];

%% generator cost data
%	2	startup	shutdown	n	c(n-1)	...	c0
mpc.gencost = [
	2	 0.0	 0.0	 3	   0.000000	 112.780000	   0.000000; % NG
	2	 0.0	 0.0	 3	   0.000000	 112.780000	   0.000000; % NG
	2	 0.0	 0.0	 3	   0.000000	  76.100000	   0.000000; % COW
	2	 0.0	 0.0	 3	   0.000000	  76.100000	   0.000000; % NG
	2	 0.0	 0.0	 3	   0.000000	  76.100000	   0.000000; % COW
	2	 0.0	 0.0	 3	   0.000000	  76.100000	   0.000000; % NG
	2	 0.0	 0.0	 3	   0.000000	  76.100000	   0.000000; % NG
	2	 0.0	 0.0	 3	   0.000000	  76.100000	   0.000000; % NG
	2	 0.0	 0.0	 3	   0.000000	  76.100000	   0.000000; % NG
	2	 0.0	 0.0	 3	   0.000000	  76.100000	   0.000000; % NG
	2	 0.0	 0.0	 3	   0.000000	  76.100000	   0.000000; % NG
	2	 0.0	 0.0	 3	   0.000000	  76.100000	   0.000000; % NG
	2	 0.0	 0.0	 3	   0.000000	  76.100000	   0.000000; % NG
	2	 0.0	 0.0	 3	   0.000000	 102.050000	   0.000000; % NG
	2	 0.0	 0.0	 3	   0.000000	 102.050000	   0.000000; % NG
	2	 0.0	 0.0	 3	   0.000000	 102.050000	   0.000000; % NG
	2	 0.0	 0.0	 3	   0.000000	 102.050000	   0.000000; % NG
	2	 0.0	 0.0	 3	   0.000000	 102.050000	   0.000000; % NG
	2	 0.0	 0.0	 3	   0.000000	 102.050000	   0.000000; % NG
	2	 0.0	 0.0	 3	   0.000000	 102.050000	   0.000000; % NG
	2	 0.0	 0.0	 3	   0.000000	 102.050000	   0.000000; % NG
	2	 0.0	 0.0	 3	   0.000000	 105.350000	   0.000000; % NG
	2	 0.0	 0.0	 3	   0.000000	 105.350000	   0.000000; % NG
	2	 0.0	 0.0	 3	   0.000000	 105.350000	   0.000000; % NG
	2	 0.0	 0.0	 3	   0.000000	 105.350000	   0.000000; % COW
	2	 0.0	 0.0	 3	   0.000000	 105.350000	   0.000000; % COW
	2	 0.0	 0.0	 3	   0.000000	 105.350000	   0.000000; % COW
	2	 0.0	 0.0	 3	   0.000000	 105.350000	   0.000000; % NG
	2	 0.0	 0.0	 3	   0.000000	   0.000000	   0.000000; % NG
	2	 0.0	 0.0	 3	   0.000000	  95.310000	   0.000000; % NG
	2	 0.0	 0.0	 3	   0.000000	  95.310000	   0.000000; % NG
	2	 0.0	 0.0	 3	   0.000000	  95.310000	   0.000000; % COW
	2	 0.0	 0.0	 3	   0.000000	  95.310000	   0.000000; % NG
	2	 0.0	 0.0	 3	   0.000000	  95.310000	   0.000000; % NG
	2	 0.0	 0.0	 3	   0.000000	  90.030000	   0.000000; % NG
	2	 0.0	 0.0	 3	   0.000000	  90.030000	   0.000000; % NG
	2	 0.0	 0.0	 3	   0.000000	   0.000000	   0.000000; % NG
	2	 0.0	 0.0	 3	   0.000000	   0.000000	   0.000000; % PEL
	2	 0.0	 0.0	 3	   0.000000	  92.780000	   0.000000; % NG
	2	 0.0	 0.0	 3	   0.000000	  92.780000	   0.000000; % NG
	2	 0.0	 0.0	 3	   0.000000	  94.090000	   0.000000; % NG
	2	 0.0	 0.0	 3	   0.000000	  94.090000	   0.000000; % NG
	2	 0.0	 0.0	 3	   0.000000	  97.120000	   0.000000; % NG
	2	 0.0	 0.0	 3	   0.000000	  97.120000	   0.000000; % NG
	2	 0.0	 0.0	 3	   0.000000	  99.520000	   0.000000; % NG
	2	 0.0	 0.0	 3	   0.000000	  91.160000	   0.000000; % NG
	2	 0.0	 0.0	 3	   0.000000	  91.160000	   0.000000; % NG
	2	 0.0	 0.0	 3	   0.000000	  91.160000	   0.000000; % NG
	2	 0.0	 0.0	 3	   0.000000	  91.160000	   0.000000; % NG
	2	 0.0	 0.0	 3	   0.000000	  91.160000	   0.000000; % NG
	2	 0.0	 0.0	 3	   0.000000	   0.010000	   0.000000; % SYNC
	2	 0.0	 0.0	 3	   0.000000	   0.010000	   0.000000; % SYNC
	2	 0.0	 0.0	 3	   0.000000	   0.010000	   0.000000; % SYNC
	2	 0.0	 0.0	 3	   0.000000	   0.010000	   0.000000; % SYNC
	2	 0.0	 0.0	 3	   0.000000	  92.430000	   0.000000; % NG
	2	 0.0	 0.0	 3	   0.000000	  92.430000	   0.000000; % NG
	2	 0.0	 0.0	 3	   0.000000	  92.430000	   0.000000; % NG
	2	 0.0	 0.0	 3	   0.000000	  96.420000	   0.000000; % NG
	2	 0.0	 0.0	 3	   0.000000	  96.420000	   0.000000; % PEL
	2	 0.0	 0.0	 3	   0.000000	  96.420000	   0.000000; % NG
	2	 0.0	 0.0	 3	   0.000000	 116.010000	   0.000000; % NG
	2	 0.0	 0.0	 3	   0.000000	 116.010000	   0.000000; % COW
	2	 0.0	 0.0	 3	   0.000000	 116.010000	   0.000000; % NG
	2	 0.0	 0.0	 3	   0.000000	 116.010000	   0.000000; % COW
	2	 0.0	 0.0	 3	   0.000000	 116.010000	   0.000000; % NG
	2	 0.0	 0.0	 3	   0.000000	 116.010000	   0.000000; % NG
	2	 0.0	 0.0	 3	   0.000000	 116.010000	   0.000000; % NG
	2	 0.0	 0.0	 3	   0.000000	  98.840000	   0.000000; % NG
	2	 0.0	 0.0	 3	   0.000000	  98.840000	   0.000000; % NG
	2	 0.0	 0.0	 3	   0.000000	  98.840000	   0.000000; % NG
	2	 0.0	 0.0	 3	   0.000000	  98.840000	   0.000000; % NG
	2	 0.0	 0.0	 3	   0.000000	  98.840000	   0.000000; % NG
	2	 0.0	 0.0	 3	   0.000000	  98.840000	   0.000000; % NG
	2	 0.0	 0.0	 3	   0.000000	  98.840000	   0.000000; % NG
	2	 0.0	 0.0	 3	   0.000000	  98.840000	   0.000000; % NG
	2	 0.0	 0.0	 3	   0.000000	  98.840000	   0.000000; % NG
	2	 0.0	 0.0	 3	   0.000000	  89.220000	   0.000000; % NG
	2	 0.0	 0.0	 3	   0.000000	  89.220000	   0.000000; % COW
	2	 0.0	 0.0	 3	   0.000000	  89.220000	   0.000000; % NG
	2	 0.0	 0.0	 3	   0.000000	  89.220000	   0.000000; % COW
	2	 0.0	 0.0	 3	   0.000000	   0.000000	   0.000000; % NG
	2	 0.0	 0.0	 3	   0.000000	   0.010000	   0.000000; % SYNC
	2	 0.0	 0.0	 3	   0.000000	   0.010000	   0.000000; % SYNC
	2	 0.0	 0.0	 3	   0.000000	   0.010000	   0.000000; % SYNC
	2	 0.0	 0.0	 3	   0.000000	   0.010000	   0.000000; % SYNC
	2	 0.0	 0.0	 3	   0.000000	   0.000000	   0.000000; % NG
	2	 0.0	 0.0	 3	   0.000000	   0.000000	   0.000000; % SYNC
	2	 0.0	 0.0	 3	   0.000000	   0.000000	   0.000000; % SYNC
	2	 0.0	 0.0	 3	   0.000000	   0.000000	   0.000000; % COW
	2	 0.0	 0.0	 3	   0.000000	   0.000000	   0.000000; % PEL
	2	 0.0	 0.0	 3	   0.000000	   0.000000	   0.000000; % NG
	2	 0.0	 0.0	 3	   0.000000	   0.000000	   0.000000; % NG
	2	 0.0	 0.0	 3	   0.000000	  76.100000	   0.000000; % COW
	2	 0.0	 0.0	 3	   0.000000	   0.000000	   0.000000; % SYNC
	2	 0.0	 0.0	 3	   0.000000	   0.000000	   0.000000; % SYNC
	2	 0.0	 0.0	 3	   0.000000	   0.000000	   0.000000; % NG
	2	 0.0	 0.0	 3	   0.000000	   0.000000	   0.000000; % SYNC
	2	 0.0	 0.0	 3	   0.000000	   0.000000	   0.000000; % SYNC
	2	 0.0	 0.0	 3	   0.000000	   0.000000	   0.000000; % SYNC
	2	 0.0	 0.0	 3	   0.000000	   0.000000	   0.000000; % SYNC
	2	 0.0	 0.0	 3	   0.000000	   0.000000	   0.000000; % SYNC
	2	 0.0	 0.0	 3	   0.000000	   0.000000	   0.000000; % SYNC
	2	 0.0	 0.0	 3	   0.000000	   0.000000	   0.000000; % NG
	2	 0.0	 0.0	 3	   0.000000	   0.000000	   0.000000; % SYNC
	2	 0.0	 0.0	 3	   0.000000	   0.000000	   0.000000; % NG
	2	 0.0	 0.0	 3	   0.000000	   0.000000	   0.000000; % SYNC
	2	 0.0	 0.0	 3	   0.000000	   0.000000	   0.000000; % SYNC
	2	 0.0	 0.0	 3	   0.000000	   0.000000	   0.000000; % PEL
	2	 0.0	 0.0	 3	   0.000000	   0.000000	   0.000000; % COW
	2	 0.0	 0.0	 3	   0.000000	   0.000000	   0.000000; % NG
	2	 0.0	 0.0	 3	   0.000000	   0.000000	   0.000000; % NG
	2	 0.0	 0.0	 3	   0.000000	   0.000000	   0.000000; % NG
	2	 0.0	 0.0	 3	   0.000000	 112.780000	   0.000000; % NG
	2	 0.0	 0.0	 3	   0.000000	 112.780000	   0.000000; % PEL
	2	 0.0	 0.0	 3	   0.000000	 112.780000	   0.000000; % PEL
	2	 0.0	 0.0	 3	   0.000000	   0.000000	   0.000000; % PEL
	2	 0.0	 0.0	 3	   0.000000	   0.000000	   0.000000; % NG
	2	 0.0	 0.0	 3	   0.000000	   0.000000	   0.000000; % SYNC
	2	 0.0	 0.0	 3	   0.000000	   0.000000	   0.000000; % PEL
	2	 0.0	 0.0	 3	   0.000000	   0.000000	   0.000000; % NG
	2	 0.0	 0.0	 3	   0.000000	   0.000000	   0.000000; % SYNC
	2	 0.0	 0.0	 3	   0.000000	   0.000000	   0.000000; % SYNC
	2	 0.0	 0.0	 3	   0.000000	   0.000000	   0.000000; % SYNC
	2	 0.0	 0.0	 3	   0.000000	   0.000000	   0.000000; % SYNC
	2	 0.0	 0.0	 3	   0.000000	   0.000000	   0.000000; % PEL
	2	 0.0	 0.0	 3	   0.000000	   0.000000	   0.000000; % PEL
	2	 0.0	 0.0	 3	   0.000000	   0.000000	   0.000000; % SYNC
	2	 0.0	 0.0	 3	   0.000000	   0.000000	   0.000000; % SYNC
	2	 0.0	 0.0	 3	   0.000000	   0.000000	   0.000000; % NG
	2	 0.0	 0.0	 3	   0.000000	   0.000000	   0.000000; % NG
	2	 0.0	 0.0	 3	   0.000000	   0.000000	   0.000000; % SYNC
	2	 0.0	 0.0	 3	   0.000000	   0.000000	   0.000000; % SYNC
	2	 0.0	 0.0	 3	   0.000000	   0.000000	   0.000000; % SYNC
	2	 0.0	 0.0	 3	   0.000000	   0.000000	   0.000000; % SYNC
	2	 0.0	 0.0	 3	   0.000000	   0.000000	   0.000000; % NG
	2	 0.0	 0.0	 3	   0.000000	   0.000000	   0.000000; % SYNC
	2	 0.0	 0.0	 3	   0.000000	   0.000000	   0.000000; % SYNC
	2	 0.0	 0.0	 3	   0.000000	   0.000000	   0.000000; % SYNC
	2	 0.0	 0.0	 3	   0.000000	   0.000000	   0.000000; % PEL
	2	 0.0	 0.0	 3	   0.000000	   0.000000	   0.000000; % NG
	2	 0.0	 0.0	 3	   0.000000	   0.000000	   0.000000; % PEL
	2	 0.0	 0.0	 3	   0.000000	 102.050000	   0.000000; % NG
	2	 0.0	 0.0	 3	   0.000000	 102.050000	   0.000000; % NG
	2	 0.0	 0.0	 3	   0.000000	   0.000000	   0.000000; % NG
	2	 0.0	 0.0	 3	   0.000000	   0.000000	   0.000000; % PEL
	2	 0.0	 0.0	 3	   0.000000	   0.000000	   0.000000; % PEL
	2	 0.0	 0.0	 3	   0.000000	   0.000000	   0.000000; % NG
	2	 0.0	 0.0	 3	   0.000000	 105.350000	   0.000000; % NG
	2	 0.0	 0.0	 3	   0.000000	   0.000000	   0.000000; % NG
	2	 0.0	 0.0	 3	   0.000000	   0.000000	   0.000000; % PEL
	2	 0.0	 0.0	 3	   0.000000	   0.010000	   0.000000; % SYNC
	2	 0.0	 0.0	 3	   0.000000	   0.010000	   0.000000; % SYNC
	2	 0.0	 0.0	 3	   0.000000	   0.010000	   0.000000; % SYNC
	2	 0.0	 0.0	 3	   0.000000	   0.010000	   0.000000; % SYNC
	2	 0.0	 0.0	 3	   0.000000	 111.630000	   0.000000; % NG
	2	 0.0	 0.0	 3	   0.000000	 111.630000	   0.000000; % NG
	2	 0.0	 0.0	 3	   0.000000	   0.000000	   0.000000; % NG
	2	 0.0	 0.0	 3	   0.000000	   0.000000	   0.000000; % NG
	2	 0.0	 0.0	 3	   0.000000	   0.000000	   0.000000; % SYNC
	2	 0.0	 0.0	 3	   0.000000	   0.000000	   0.000000; % SYNC
	2	 0.0	 0.0	 3	   0.000000	   0.000000	   0.000000; % PEL
	2	 0.0	 0.0	 3	   0.000000	   0.000000	   0.000000; % SYNC
	2	 0.0	 0.0	 3	   0.000000	   0.000000	   0.000000; % NG
	2	 0.0	 0.0	 3	   0.000000	   0.000000	   0.000000; % SYNC
	2	 0.0	 0.0	 3	   0.000000	   0.000000	   0.000000; % SYNC
	2	 0.0	 0.0	 3	   0.000000	   0.000000	   0.000000; % NG
	2	 0.0	 0.0	 3	   0.000000	   0.000000	   0.000000; % SYNC
	2	 0.0	 0.0	 3	   0.000000	  90.030000	   0.000000; % NG
	2	 0.0	 0.0	 3	   0.000000	  90.030000	   0.000000; % NG
	2	 0.0	 0.0	 3	   0.000000	   0.000000	   0.000000; % NG
	2	 0.0	 0.0	 3	   0.000000	   0.000000	   0.000000; % NG
	2	 0.0	 0.0	 3	   0.000000	   0.000000	   0.000000; % PEL
	2	 0.0	 0.0	 3	   0.000000	   0.000000	   0.000000; % SYNC
	2	 0.0	 0.0	 3	   0.000000	   0.000000	   0.000000; % SYNC
	2	 0.0	 0.0	 3	   0.000000	   0.000000	   0.000000; % NG
	2	 0.0	 0.0	 3	   0.000000	   0.000000	   0.000000; % SYNC
	2	 0.0	 0.0	 3	   0.000000	   0.000000	   0.000000; % SYNC
	2	 0.0	 0.0	 3	   0.000000	   0.000000	   0.000000; % SYNC
	2	 0.0	 0.0	 3	   0.000000	   0.000000	   0.000000; % SYNC
	2	 0.0	 0.0	 3	   0.000000	   0.000000	   0.000000; % NG
	2	 0.0	 0.0	 3	   0.000000	   0.000000	   0.000000; % SYNC
	2	 0.0	 0.0	 3	   0.000000	   0.000000	   0.000000; % SYNC
	2	 0.0	 0.0	 3	   0.000000	   0.000000	   0.000000; % SYNC
	2	 0.0	 0.0	 3	   0.000000	   0.000000	   0.000000; % SYNC
	2	 0.0	 0.0	 3	   0.000000	   0.000000	   0.000000; % NG
	2	 0.0	 0.0	 3	   0.000000	   0.000000	   0.000000; % SYNC
	2	 0.0	 0.0	 3	   0.000000	   0.000000	   0.000000; % PEL
	2	 0.0	 0.0	 3	   0.000000	   0.000000	   0.000000; % SYNC
	2	 0.0	 0.0	 3	   0.000000	   0.000000	   0.000000; % PEL
	2	 0.0	 0.0	 3	   0.000000	   0.000000	   0.000000; % SYNC
	2	 0.0	 0.0	 3	   0.000000	   0.000000	   0.000000; % COW
	2	 0.0	 0.0	 3	   0.000000	   0.000000	   0.000000; % SYNC
	2	 0.0	 0.0	 3	   0.000000	   0.000000	   0.000000; % NG
	2	 0.0	 0.0	 3	   0.000000	   0.000000	   0.000000; % SYNC
	2	 0.0	 0.0	 3	   0.000000	   0.000000	   0.000000; % SYNC
	2	 0.0	 0.0	 3	   0.000000	   0.000000	   0.000000; % NG
	2	 0.0	 0.0	 3	   0.000000	   0.000000	   0.000000; % PEL
	2	 0.0	 0.0	 3	   0.000000	   0.000000	   0.000000; % SYNC
	2	 0.0	 0.0	 3	   0.000000	   0.000000	   0.000000; % SYNC
	2	 0.0	 0.0	 3	   0.000000	   0.000000	   0.000000; % SYNC
...
];

%% branch data
%	fbus	tbus	r	x	b	rateA	rateB	rateC	ratio	angle	status	angmin	angmax
mpc.branch = [
	7	 8	 0.00064	 0.0305	 0.0	 400.0	 400.0	 400.0	 1.0435	 0.6	 1	 -30.0	 30.0;
	26	 28	 0.00036	 0.02519	 0.0	 500.0	 500.0	 500.0	 1.0911	 0.0	 1	 -30.0	 30.0;
	27	 29	 0.00036	 0.02519	 0.0	 500.0	 500.0	 500.0	 1.0759	 0.0	 1	 -30.0	 30.0;
	39	 41	 0.00034	 0.02097	 0.0	 500.0	 500.0	 500.0	 1.0793	 0.0	 1	 -30.0	 30.0;
	42	 45	 0.00034	 0.02097	 0.0	 500.0	 500.0	 500.0	 1.0296	 0.0	 1	 -30.0	 30.0;
	54	 56	 0.00081	 0.03	 0.0	 400.0	 400.0	 400.0	 1.0501	 0.0	 1	 -30.0	 30.0;
	63	 65	 0.00015	 0.01071	 0.0	 1250.0	 1250.0	 1250.0	 0.9673	 0.0	 1	 -30.0	 30.0;
	64	 65	 0.00015	 0.01071	 0.0	 1250.0	 1250.0	 1250.0	 0.9665	 0.0	 0	 -30.0	 30.0;
	90	 92	 0.00075	 0.02444	 -0.00832	 330.0	 330.0	 330.0	 1.0474	 0.0	 1	 -30.0	 30.0;
	91	 93	 0.00075	 0.02469	 -0.008	 330.0	 330.0	 330.0	 1.0445	 0.0	 1	 -30.0	 30.0;
	125	 128	 0.0005	 0.02875	 -0.016	 400.0	 400.0	 400.0	 1.1172	 0.0	 1	 -30.0	 30.0;
	149	 150	 0.00064	 0.0305	 0.0	 400.0	 400.0	 400.0	 1.077	 0.0	 1	 -30.0	 30.0;
	155	 157	 0.000232	 0.023	 0.0	 500.0	 500.0	 500.0	 1.0887	 0.0	 1	 -30.0	 30.0;
	156	 158	 0.000232	 0.023	 0.0	 500.0	 500.0	 500.0	 1.0887	 0.0	 1	 -30.0	 30.0;
	169	 171	 0.00035	 0.02375	 0.0	 500.0	 500.0	 500.0	 1.0894	 0.0	 1	 -30.0	 30.0;
	183	 184	 0.00059	 0.030919	 0.0	 400.0	 400.0	 400.0	 1.0584	 0.0	 1	 -30.0	 30.0;
	190	 192	 0.0004	 0.03	 0.0	 500.0	 500.0	 500.0	 1.0855	 -3.6	 1	 -30.0	 30.0;
	2727	 157	 0.00031	 0.00338	 0.0992	 1386.0	 1386.0	 1386.0	 0.0	 0.0	 1	 -30.0	 30.0;
	2727	 158	 0.00031	 0.00338	 0.0992	 1386.0	 1386.0	 1386.0	 0.0	 0.0	 1	 -30.0	 30.0;
	2728	 68	 0.014341	 0.083531	 0.126034	 385.0	 385.0	 385.0	 0.0	 0.0	 1	 -30.0	 30.0;
	2726	 76	 0.01219	 0.070659	 0.117418	 412.0	 412.0	 412.0	 0.0	 0.0	 1	 -30.0	 30.0;
	2726	 105	 0.011781	 0.07087	 0.116838	 412.0	 412.0	 412.0	 0.0	 0.0	 1	 -30.0	 30.0;
	127	 2725	 0.001525	 0.016837	 0.50576	 1386.0	 1386.0	 1386.0	 0.0	 0.0	 1	 -30.0	 30.0;
	2729	 148	 0.001651	 0.015909	 0.046948	 316.0	 316.0	 316.0	 0.0	 0.0	 1	 -30.0	 30.0;
	2729	 149	 0.001651	 0.015909	 0.046948	 316.0	 316.0	 316.0	 0.0	 0.0	 1	 -30.0	 30.0;
	2730	 47	 0.00188	 0.02287	 0.6432	 831.0	 831.0	 831.0	 0.0	 0.0	 1	 -30.0	 30.0;
	2730	 48	 0.00188	 0.02287	 0.6432	 831.0	 831.0	 831.0	 0.0	 0.0	 1	 -30.0	 30.0;
	82	 2724	 0.002769	 0.031162	 0.89824	 1386.0	 1386.0	 1386.0	 0.0	 0.0	 1	 -30.0	 30.0;
	42	 23	 0.01345	 0.081141	 0.141134	 339.0	 339.0	 339.0	 0.0	 0.0	 1	 -30.0	 30.0;
	26	 90	 0.009091	 0.062401	 0.111417	 453.0	 453.0	 453.0	 0.0	 0.0	 1	 -30.0	 30.0;
	27	 91	 0.00868	 0.06405	 0.096994	 427.0	 427.0	 427.0	 0.0	 0.0	 1	 -30.0	 30.0;
	146	 30	 0.016961	 0.123659	 0.196988	 316.0	 316.0	 316.0	 0.0	 0.0	 1	 -30.0	 30.0;
	135	 33	 0.00512	 0.02618	 0.029621	 301.0	 301.0	 301.0	 0.0	 0.0	 1	 -30.0	 30.0;
	134	 20	 0.01068	 0.061961	 0.094961	 385.0	 385.0	 385.0	 0.0	 0.0	 1	 -30.0	 30.0;
	164	 21	 0.014651	 0.105891	 0.170852	 316.0	 316.0	 316.0	 0.0	 0.0	 1	 -30.0	 30.0;
	40	 109	 0.01488	 0.08161	 0.114805	 314.0	 314.0	 314.0	 0.0	 0.0	 1	 -30.0	 30.0;
	39	 91	 0.011159	 0.07231	 0.103673	 324.0	 324.0	 324.0	 0.0	 0.0	 1	 -30.0	 30.0;
	178	 83	 0.005517	 0.059484	 0.170775	 316.0	 316.0	 316.0	 0.0	 0.0	 1	 -30.0	 30.0;
	203	 165	 0.01176	 0.068289	 0.102802	 324.0	 324.0	 324.0	 0.0	 0.0	 1	 -30.0	 30.0;
	194	 165	 0.016818	 0.089091	 0.129935	 358.0	 358.0	 358.0	 0.0	 0.0	 1	 -30.0	 30.0;
	193	 164	 0.013843	 0.087025	 0.134842	 383.0	 383.0	 383.0	 0.0	 0.0	 1	 -30.0	 30.0;
	207	 167	 0.01676	 0.097169	 0.148685	 269.0	 269.0	 269.0	 0.0	 0.0	 1	 -30.0	 30.0;
	42	 10	 0.01269	 0.074979	 0.130196	 351.0	 351.0	 351.0	 0.0	 0.0	 1	 -30.0	 30.0;
	198	 18	 0.014091	 0.10413	 0.15972	 316.0	 316.0	 316.0	 0.0	 0.0	 1	 -30.0	 30.0;
	100	 54	 0.003719	 0.0438	 0.100962	 457.0	 457.0	 457.0	 0.0	 0.0	 1	 -30.0	 30.0;
	162	 82	 0.00194	 0.02056	 0.51584	 1178.0	 1178.0	 1178.0	 0.0	 0.0	 1	 -30.0	 30.0;
	44	 9	 0.0015	 0.01506	 0.4032	 1386.0	 1386.0	 1386.0	 0.0	 0.0	 1	 -30.0	 30.0;
	185	 150	 0.00294	 0.03463	 0.9216	 693.0	 693.0	 693.0	 0.0	 0.0	 1	 -30.0	 30.0;
	121	 56	 0.00169	 0.01994	 0.50624	 831.0	 831.0	 831.0	 0.0	 0.0	 1	 -30.0	 30.0;
	29	 93	 0.00137	 0.01625	 0.41184	 1386.0	 1386.0	 1386.0	 0.0	 0.0	 1	 -30.0	 30.0;
	28	 123	 0.00231	 0.02769	 0.70144	 1386.0	 1386.0	 1386.0	 0.0	 0.0	 1	 -30.0	 30.0;
	25	 192	 0.00207	 0.02474	 0.664	 1386.0	 1386.0	 1386.0	 0.0	 0.0	 1	 -30.0	 30.0;
	120	 63	 0.0015	 0.01788	 0.4512	 831.0	 831.0	 831.0	 0.0	 0.0	 1	 -30.0	 30.0;
	122	 63	 0.00469	 0.05544	 1.4048	 831.0	 831.0	 831.0	 0.0	 0.0	 0	 -30.0	 30.0;
	82	 31	 0.00331	 0.03425	 0.85888	 977.0	 977.0	 977.0	 0.0	 0.0	 1	 -30.0	 30.0;
	92	 28	 0.00219	 0.02369	 0.59584	 1178.0	 1178.0	 1178.0	 0.0	 0.0	 1	 -30.0	 30.0;
	12	 4	 0.01674	 0.09711	 0.144232	 427.0	 427.0	 427.0	 0.0	 0.0	 1	 -30.0	 30.0;
	30	 11	 0.0057	 0.0407	 0.06021	 316.0	 316.0	 316.0	 0.0	 0.0	 1	 -30.0	 30.0;
	24	 4	 0.004419	 0.032229	 0.049852	 383.0	 383.0	 383.0	 0.0	 0.0	 1	 -30.0	 30.0;
	17	 7	 0.014591	 0.11219	 0.165528	 383.0	 383.0	 383.0	 0.0	 0.0	 1	 -30.0	 30.0;
	21	 10	 0.01211	 0.087419	 0.140166	 316.0	 316.0	 316.0	 0.0	 0.0	 1	 -30.0	 30.0;
	26	 5	 0.009773	 0.050516	 0.088959	 377.0	 377.0	 377.0	 0.0	 0.0	 1	 -30.0	 30.0;
	17	 3	 0.01068	 0.07895	 0.245194	 274.0	 274.0	 274.0	 0.0	 0.0	 1	 -30.0	 30.0;
	26	 19	 0.0057	 0.039521	 0.075533	 440.0	 440.0	 440.0	 0.0	 0.0	 1	 -30.0	 30.0;
	27	 20	 0.0057	 0.039521	 0.075533	 440.0	 440.0	 440.0	 0.0	 0.0	 1	 -30.0	 30.0;
	13	 6	 0.00525	 0.03988	 0.061952	 316.0	 316.0	 316.0	 0.0	 0.0	 1	 -30.0	 30.0;
	13	 12	 2.1e-05	 0.000207	 0.0	 316.0	 316.0	 316.0	 0.0	 0.0	 1	 -30.0	 30.0;
	32	 13	 0.00093	 0.00651	 0.011132	 316.0	 316.0	 316.0	 0.0	 0.0	 1	 -30.0	 30.0;
	23	 11	 0.00205	 0.01326	 0.022429	 385.0	 385.0	 385.0	 0.0	 0.0	 1	 -30.0	 30.0;
	33	 5	 0.007831	 0.043	 0.04962	 301.0	 301.0	 301.0	 0.0	 0.0	 1	 -30.0	 30.0;
	19	 4	 0.00293	 0.01599	 0.024781	 324.0	 324.0	 324.0	 0.0	 0.0	 1	 -30.0	 30.0;
	26	 1	 0.00155	 0.01169	 0.018198	 633.0	 633.0	 633.0	 0.0	 0.0	 1	 -30.0	 30.0;
	27	 2	 0.00155	 0.01169	 0.018198	 633.0	 633.0	 633.0	 0.0	 0.0	 1	 -30.0	 30.0;
	27	 24	 0.003841	 0.028531	 0.045883	 392.0	 392.0	 392.0	 0.0	 0.0	 1	 -30.0	 30.0;
	25	 9	 0.00298	 0.03418	 0.93504	 831.0	 831.0	 831.0	 0.0	 0.0	 1	 -30.0	 30.0;
	28	 25	 0.00358	 0.04262	 1.0944	 1386.0	 1386.0	 1386.0	 0.0	 0.0	 1	 -30.0	 30.0;
	14	 29	 0.00336	 0.03977	 1.02163	 1316.0	 1316.0	 1316.0	 0.0	 0.0	 1	 -30.0	 30.0;
	8	 15	 0.00299	 0.03675	 0.9184	 1150.0	 1150.0	 1150.0	 0.0	 0.0	 1	 -30.0	 30.0;
	8	 14	 0.00112	 0.01329	 0.341248	 1150.0	 1150.0	 1150.0	 0.0	 0.0	 1	 -30.0	 30.0;
	31	 29	 0.00075	 0.009	 0.22848	 1150.0	 1150.0	 1150.0	 0.0	 0.0	 1	 -30.0	 30.0;
	62	 58	 0.010479	 0.060969	 0.092047	 269.0	 269.0	 269.0	 0.0	 0.0	 1	 -30.0	 30.0;
	60	 55	 0.00882	 0.065641	 0.100662	 274.0	 274.0	 274.0	 0.0	 0.0	 1	 -30.0	 30.0;
	67	 34	 0.011219	 0.065581	 0.098349	 274.0	 274.0	 274.0	 0.0	 0.0	 1	 -30.0	 30.0;
	50	 34	 0.01163	 0.07031	 0.105802	 341.0	 341.0	 341.0	 0.0	 0.0	 1	 -30.0	 30.0;
	58	 42	 0.00545	 0.040211	 0.066986	 404.0	 404.0	 404.0	 0.0	 0.0	 1	 -30.0	 30.0;
	59	 43	 0.00545	 0.040211	 0.066986	 404.0	 404.0	 404.0	 0.0	 0.0	 1	 -30.0	 30.0;
	59	 34	 0.00837	 0.04868	 0.073481	 379.0	 379.0	 379.0	 0.0	 0.0	 1	 -30.0	 30.0;
	68	 51	 0.003159	 0.02076	 0.03146	 385.0	 385.0	 385.0	 0.0	 0.0	 1	 -30.0	 30.0;
	51	 38	 0.006979	 0.051961	 0.079666	 316.0	 316.0	 316.0	 0.0	 0.0	 1	 -30.0	 30.0;
	36	 55	 0.00374	 0.027831	 0.042689	 274.0	 274.0	 274.0	 0.0	 0.0	 1	 -30.0	 30.0;
	37	 35	 0.00769	 0.057271	 0.087894	 316.0	 316.0	 316.0	 0.0	 0.0	 1	 -30.0	 30.0;
	54	 37	 0.00556	 0.04145	 0.063598	 383.0	 383.0	 383.0	 0.0	 0.0	 1	 -30.0	 30.0;
	67	 36	 0.004521	 0.03368	 0.051691	 392.0	 392.0	 392.0	 0.0	 0.0	 1	 -30.0	 30.0;
	67	 66	 0.00151	 0.008781	 0.013165	 341.0	 341.0	 341.0	 0.0	 0.0	 1	 -30.0	 30.0;
	61	 42	 0.00574	 0.042831	 0.065727	 404.0	 404.0	 404.0	 0.0	 0.0	 1	 -30.0	 30.0;
	62	 43	 0.00707	 0.045409	 0.069309	 314.0	 314.0	 314.0	 0.0	 0.0	 1	 -30.0	 30.0;
	61	 39	 0.01213	 0.062151	 0.093712	 314.0	 314.0	 314.0	 0.0	 0.0	 1	 -30.0	 30.0;
	60	 40	 0.002479	 0.017979	 0.027588	 316.0	 316.0	 316.0	 0.0	 0.0	 1	 -30.0	 30.0;
	46	 39	 0.002401	 0.01494	 0.022525	 341.0	 341.0	 341.0	 0.0	 0.0	 1	 -30.0	 30.0;
	49	 45	 0.00167	 0.0189	 0.54176	 1150.0	 1150.0	 1150.0	 0.0	 0.0	 1	 -30.0	 30.0;
	57	 53	 0.00109	 0.01277	 0.34176	 1150.0	 1150.0	 1150.0	 0.0	 0.0	 1	 -30.0	 30.0;
	41	 57	 0.002259	 0.026439	 0.70784	 1150.0	 1150.0	 1150.0	 0.0	 0.0	 1	 -30.0	 30.0;
	63	 57	 0.00094	 0.01097	 0.29376	 1393.0	 1393.0	 1393.0	 0.0	 0.0	 1	 -30.0	 30.0;
	47	 64	 0.00113	 0.01406	 0.37488	 1386.0	 1386.0	 1386.0	 0.0	 0.0	 1	 -30.0	 30.0;
	52	 44	 0.00176	 0.02144	 0.57344	 1150.0	 1150.0	 1150.0	 0.0	 0.0	 1	 -30.0	 30.0;
	96	 125	 0.004876	 0.033616	 0.059609	 404.0	 404.0	 404.0	 0.0	 0.0	 1	 -30.0	 30.0;
	75	 106	 0.01093	 0.059194	 0.08439	 246.0	 246.0	 246.0	 0.0	 0.0	 1	 -30.0	 30.0;
	106	 94	 0.001942	 0.013926	 0.022845	 404.0	 404.0	 404.0	 0.0	 0.0	 1	 -30.0	 30.0;
	79	 85	 0.004318	 0.029752	 0.05264	 316.0	 316.0	 316.0	 0.0	 0.0	 1	 -30.0	 30.0;
	131	 130	 0.000661	 0.004959	 0.007579	 379.0	 379.0	 379.0	 0.0	 0.0	 1	 -30.0	 30.0;
	107	 131	 0.005372	 0.040393	 0.060055	 379.0	 379.0	 379.0	 0.0	 0.0	 1	 -30.0	 30.0;
	91	 131	 0.000826	 0.005248	 0.008683	 301.0	 301.0	 301.0	 0.0	 0.0	 1	 -30.0	 30.0;
	100	 119	 0.015888	 0.087603	 0.116818	 314.0	 314.0	 314.0	 0.0	 0.0	 1	 -30.0	 30.0;
	81	 113	 0.002169	 0.014587	 0.025749	 269.0	 269.0	 269.0	 0.0	 0.0	 1	 -30.0	 30.0;
	116	 101	 0.017727	 0.116777	 0.163611	 246.0	 246.0	 246.0	 0.0	 0.0	 1	 -30.0	 30.0;
	126	 74	 0.00593	 0.04093	 0.072145	 404.0	 404.0	 404.0	 0.0	 0.0	 1	 -30.0	 30.0;
	108	 90	 0.003905	 0.028471	 0.044983	 383.0	 383.0	 383.0	 0.0	 0.0	 1	 -30.0	 30.0;
	118	 79	 0.008161	 0.042417	 0.061197	 356.0	 356.0	 356.0	 0.0	 0.0	 1	 -30.0	 30.0;
	119	 78	 0.008161	 0.042417	 0.061197	 356.0	 356.0	 356.0	 0.0	 0.0	 1	 -30.0	 30.0;
	79	 76	 0.005186	 0.038388	 0.058748	 453.0	 453.0	 453.0	 0.0	 0.0	 1	 -30.0	 30.0;
	78	 73	 0.002128	 0.014029	 0.022603	 301.0	 301.0	 301.0	 0.0	 0.0	 1	 -30.0	 30.0;
	114	 78	 0.004628	 0.027748	 0.046115	 324.0	 324.0	 324.0	 0.0	 0.0	 1	 -30.0	 30.0;
	103	 72	 0.011219	 0.070744	 0.115705	 246.0	 246.0	 246.0	 0.0	 0.0	 1	 -30.0	 30.0;
	110	 117	 0.006012	 0.041467	 0.073636	 383.0	 383.0	 383.0	 0.0	 0.0	 1	 -30.0	 30.0;
	91	 69	 0.002066	 0.012789	 0.020551	 269.0	 269.0	 269.0	 0.0	 0.0	 1	 -30.0	 30.0;
	86	 90	 0.001364	 0.009731	 0.016243	 453.0	 453.0	 453.0	 0.0	 0.0	 1	 -30.0	 30.0;
	129	 87	 0.000579	 0.004112	 0.007008	 404.0	 404.0	 404.0	 0.0	 0.0	 1	 -30.0	 30.0;
	132	 76	 0.000847	 0.00624	 0.009544	 457.0	 457.0	 457.0	 0.0	 0.0	 1	 -30.0	 30.0;
	133	 77	 0.000847	 0.00626	 0.009477	 457.0	 457.0	 457.0	 0.0	 0.0	 1	 -30.0	 30.0;
	102	 77	 0.001591	 0.011116	 0.019128	 453.0	 453.0	 453.0	 0.0	 0.0	 1	 -30.0	 30.0;
	125	 104	 0.003141	 0.021591	 0.038391	 404.0	 404.0	 404.0	 0.0	 0.0	 1	 -30.0	 30.0;
	126	 111	 0.004545	 0.03157	 0.055312	 316.0	 316.0	 316.0	 0.0	 0.0	 1	 -30.0	 30.0;
	104	 84	 0.001446	 0.009917	 0.017598	 316.0	 316.0	 316.0	 0.0	 0.0	 1	 -30.0	 30.0;
	105	 95	 0.003822	 0.026674	 0.046154	 316.0	 316.0	 316.0	 0.0	 0.0	 1	 -30.0	 30.0;
	112	 80	 0.007769	 0.041281	 0.063907	 269.0	 269.0	 269.0	 0.0	 0.0	 1	 -30.0	 30.0;
	89	 78	 0.004463	 0.030413	 0.048671	 246.0	 246.0	 246.0	 0.0	 0.0	 1	 -30.0	 30.0;
	117	 108	 0.005888	 0.035062	 0.052349	 246.0	 246.0	 246.0	 0.0	 0.0	 1	 -30.0	 30.0;
	109	 99	 0.003161	 0.023409	 0.036165	 316.0	 316.0	 316.0	 0.0	 0.0	 1	 -30.0	 30.0;
	116	 79	 0.001839	 0.012603	 0.022399	 316.0	 316.0	 316.0	 0.0	 0.0	 1	 -30.0	 30.0;
	107	 88	 0.001715	 0.009607	 0.014239	 301.0	 301.0	 301.0	 0.0	 0.0	 1	 -30.0	 30.0;
	98	 79	 0.003409	 0.024421	 0.039969	 246.0	 246.0	 246.0	 0.0	 0.0	 1	 -30.0	 30.0;
	117	 78	 0.001839	 0.012603	 0.02239	 316.0	 316.0	 316.0	 0.0	 0.0	 1	 -30.0	 30.0;
	83	 97	 0.005702	 0.041488	 0.066172	 404.0	 404.0	 404.0	 0.0	 0.0	 1	 -30.0	 30.0;
	124	 118	 0.004587	 0.024628	 0.036165	 314.0	 314.0	 314.0	 0.0	 0.0	 1	 -30.0	 30.0;
	124	 110	 0.002149	 0.013327	 0.022109	 246.0	 246.0	 246.0	 0.0	 0.0	 1	 -30.0	 30.0;
	100	 71	 0.000785	 0.004876	 0.00726	 269.0	 269.0	 269.0	 0.0	 0.0	 1	 -30.0	 30.0;
	101	 70	 0.000785	 0.004876	 0.007241	 269.0	 269.0	 269.0	 0.0	 0.0	 1	 -30.0	 30.0;
	93	 127	 0.002413	 0.027544	 0.767968	 831.0	 831.0	 831.0	 0.0	 0.0	 1	 -30.0	 30.0;
	82	 127	 0.002131	 0.024319	 0.67744	 1386.0	 1386.0	 1386.0	 0.0	 0.0	 1	 -30.0	 30.0;
	122	 115	 0.000913	 0.0104	 0.289888	 1150.0	 1150.0	 1150.0	 0.0	 0.0	 1	 -30.0	 30.0;
	123	 121	 0.003119	 0.035631	 0.991072	 831.0	 831.0	 831.0	 0.0	 0.0	 1	 -30.0	 30.0;
	115	 128	 0.000919	 0.010512	 0.292928	 1150.0	 1150.0	 1150.0	 0.0	 0.0	 1	 -30.0	 30.0;
	173	 156	 0.01545	 0.073349	 0.126614	 427.0	 427.0	 427.0	 0.0	 0.0	 1	 -30.0	 30.0;
	174	 155	 0.01545	 0.073349	 0.126614	 427.0	 427.0	 427.0	 0.0	 0.0	 1	 -30.0	 30.0;
	176	 155	 0.01457	 0.07955	 0.14007	 324.0	 324.0	 324.0	 0.0	 0.0	 1	 -30.0	 30.0;
	177	 156	 0.01457	 0.07955	 0.14007	 324.0	 324.0	 324.0	 0.0	 0.0	 1	 -30.0	 30.0;
	176	 144	 0.006031	 0.04401	 0.069793	 316.0	 316.0	 316.0	 0.0	 0.0	 1	 -30.0	 30.0;
	165	 140	 0.011031	 0.08057	 0.124127	 404.0	 404.0	 404.0	 0.0	 0.0	 1	 -30.0	 30.0;
	137	 155	 0.005831	 0.04231	 0.070664	 383.0	 383.0	 383.0	 0.0	 0.0	 1	 -30.0	 30.0;
	170	 173	 0.01849	 0.095599	 0.159139	 305.0	 305.0	 305.0	 0.0	 0.0	 1	 -30.0	 30.0;
	152	 174	 0.010581	 0.053	 0.088475	 385.0	 385.0	 385.0	 0.0	 0.0	 1	 -30.0	 30.0;
	154	 156	 0.012521	 0.091359	 0.145394	 453.0	 453.0	 453.0	 0.0	 0.0	 1	 -30.0	 30.0;
	136	 137	 0.00506	 0.036539	 0.063598	 305.0	 305.0	 305.0	 0.0	 0.0	 1	 -30.0	 30.0;
	148	 143	 0.01043	 0.077891	 0.122065	 383.0	 383.0	 383.0	 0.0	 0.0	 1	 -30.0	 30.0;
	153	 181	 0.007702	 0.056917	 0.086733	 316.0	 316.0	 316.0	 0.0	 0.0	 1	 -30.0	 30.0;
	153	 180	 0.002256	 0.016674	 0.02541	 333.0	 333.0	 333.0	 0.0	 0.0	 1	 -30.0	 30.0;
	175	 147	 0.009147	 0.089554	 0.215196	 246.0	 246.0	 246.0	 0.0	 0.0	 1	 -30.0	 30.0;
	175	 169	 0.00244	 0.01318	 0.021296	 341.0	 341.0	 341.0	 0.0	 0.0	 0	 -30.0	 30.0;
	169	 140	 0.00355	 0.02593	 0.041237	 404.0	 404.0	 404.0	 0.0	 0.0	 1	 -30.0	 30.0;
	170	 167	 0.01312	 0.076219	 0.116644	 324.0	 324.0	 324.0	 0.0	 0.0	 1	 -30.0	 30.0;
	169	 152	 0.009341	 0.05225	 0.087701	 305.0	 305.0	 305.0	 0.0	 0.0	 1	 -30.0	 30.0;
	146	 135	 0.006141	 0.032521	 0.052456	 356.0	 356.0	 356.0	 0.0	 0.0	 1	 -30.0	 30.0;
	147	 134	 0.00438	 0.03188	 0.050723	 453.0	 453.0	 453.0	 0.0	 0.0	 1	 -30.0	 30.0;
	164	 147	 0.000479	 0.00331	 0.005711	 404.0	 404.0	 404.0	 0.0	 0.0	 1	 -30.0	 30.0;
	165	 146	 0.000479	 0.00331	 0.005711	 404.0	 404.0	 404.0	 0.0	 0.0	 1	 -30.0	 30.0;
	154	 143	 0.010539	 0.076859	 0.122355	 316.0	 316.0	 316.0	 0.0	 0.0	 1	 -30.0	 30.0;
	159	 148	 0.00469	 0.034651	 0.053821	 383.0	 383.0	 383.0	 0.0	 0.0	 1	 -30.0	 30.0;
	149	 141	 0.006469	 0.0413	 0.069212	 383.0	 383.0	 383.0	 0.0	 0.0	 1	 -30.0	 30.0;
	168	 141	 0.00105	 0.007211	 0.01028	 316.0	 316.0	 316.0	 0.0	 0.0	 1	 -30.0	 30.0;
	168	 159	 0.006099	 0.044831	 0.070954	 316.0	 316.0	 316.0	 0.0	 0.0	 1	 -30.0	 30.0;
	176	 136	 0.002211	 0.01655	 0.024781	 316.0	 316.0	 316.0	 0.0	 0.0	 1	 -30.0	 30.0;
	178	 177	 0.005169	 0.036979	 0.058951	 316.0	 316.0	 316.0	 0.0	 0.0	 1	 -30.0	 30.0;
	181	 173	 0.002401	 0.017789	 0.027588	 381.0	 381.0	 381.0	 0.0	 0.0	 1	 -30.0	 30.0;
	157	 138	 0.00274	 0.02696	 0.70592	 977.0	 977.0	 977.0	 0.0	 0.0	 1	 -30.0	 30.0;
	163	 139	 0.0017	 0.01733	 0.45632	 915.0	 915.0	 915.0	 0.0	 0.0	 1	 -30.0	 30.0;
	161	 162	 0.00136	 0.01574	 0.433664	 1469.0	 1469.0	 1469.0	 0.0	 0.0	 1	 -30.0	 30.0;
	171	 151	 0.00371	 0.04326	 1.18688	 693.0	 693.0	 693.0	 0.0	 0.0	 1	 -30.0	 30.0;
	188	 193	 0.01882	 0.137581	 0.25381	 299.0	 299.0	 299.0	 0.0	 0.0	 1	 -30.0	 30.0;
	197	 203	 0.02756	 0.16014	 0.242871	 269.0	 269.0	 269.0	 0.0	 0.0	 1	 -30.0	 30.0;
	189	 208	 0.01905	 0.11132	 0.167851	 269.0	 269.0	 269.0	 0.0	 0.0	 1	 -30.0	 30.0;
	191	 194	 0.00795	 0.05919	 0.090798	 316.0	 316.0	 316.0	 0.0	 0.0	 1	 -30.0	 30.0;
	193	 182	 0.0018	 0.021141	 0.051498	 633.0	 633.0	 633.0	 0.0	 0.0	 1	 -30.0	 30.0;
...